/*---------------------------------------------------------------------------*\
| =========                 |                                                 |
| \\      /  F ield         | OpenFOAM: The Open Source CFD Toolbox           |
|  \\    /   O peration     | Version:  v1906                                 |
|   \\  /    A nd           | Web:      www.OpenFOAM.com                      |
|    \\/     M anipulation  |                                                 |
\*---------------------------------------------------------------------------*/
Build  : fc3d515-20190712 OPENFOAM=1906 patch=190708
Arch   : "LSB;label=32;scalar=64"
Exec   : D:\OpenFoam\v1906\msys64\home\ofuser\OpenFOAM\OpenFOAM-v1906\platforms\linux64MingwDPInt32Opt\bin\buoyantSimpleFoam.exe
Date   : Mar 11 2020
Time   : 19:12:23
Host   : NICK
PID    : 6464
I/O    : uncollated
Case   : D:/OpenFoam/v1906/msys64/home/Nick/run/circuitBoardCooling
nProcs : 1
trapFpe: Floating point exception trapping enabled (FOAM_SIGFPE).
fileModificationChecking : Monitoring run-time modified files using timeStampMaster (fileModificationSkew 10)
allowSystemOperations : Allowing user-supplied system call operations

// * * * * * * * * * * * * * * * * * * * * * * * * * * * * * * * * * * * * * //
Create time

Create mesh for time = 0


SIMPLE: convergence criteria
    field p_rgh	 tolerance 0.001
    field U	 tolerance 0.0001
    field h	 tolerance 0.0001
    field "(k|epsilon|omega)"	 tolerance 0.005

Reading thermophysical properties

Selecting thermodynamics package 
{
    type            heRhoThermo;
    mixture         pureMixture;
    transport       const;
    thermo          hConst;
    equationOfState perfectGas;
    specie          specie;
    energy          sensibleEnthalpy;
}

    Selecting region model functions
    none

The thermal baffle is 3D 

Selecting thermodynamics package 
{
    type            heSolidThermo;
    mixture         pureMixture;
    transport       constIso;
    thermo          hConst;
    equationOfState rhoConst;
    specie          specie;
    energy          sensibleEnthalpy;
}

Selecting radiationModel opaqueSolid
Selecting absorptionEmissionModel none
Selecting scatterModel none
Reading field U

Reading/calculating face flux field phi

Creating turbulence model

Selecting turbulence model type RAS
Selecting RAS turbulence model kEpsilon
RAS
{
    RASModel        kEpsilon;
    turbulence      on;
    printCoeffs     on;
    Cmu             0.09;
    C1              1.44;
    C2              1.92;
    C3              0;
    sigmak          1;
    sigmaEps        1.3;
}


Reading g

Reading hRef
Calculating field g.h

Reading field p_rgh

No MRF models present

Radiation model not active: radiationProperties not found
Selecting radiationModel none
No finite volume options present

Starting time loop

Time = 1


Evolving thermalBaffle for region baffle3DRegion
DICPCG:  Solving for h, Initial residual = 1, Final residual = 2.64198e-07, No Iterations 8
T min/max   = min(T) [0 0 0 1 0 0 0] 300, max(T) [0 0 0 1 0 0 0] 396.677
DILUPBiCGStab:  Solving for h, Initial residual = 1, Final residual = 0.00102534, No Iterations 2
GAMG:  Solving for p_rgh, Initial residual = 0.885741, Final residual = 0.00381013, No Iterations 4
time step continuity errors : sum local = 0.00115369, global = -0.000394366, cumulative = -0.000394366
rho min/max : 1.13234 1.17641
DILUPBiCGStab:  Solving for epsilon, Initial residual = 0.0340537, Final residual = 0.000194233, No Iterations 1
DILUPBiCGStab:  Solving for k, Initial residual = 1, Final residual = 0.000113783, No Iterations 1
ExecutionTime = 0.641 s  ClockTime = 1 s

Time = 2


Evolving thermalBaffle for region baffle3DRegion
DICPCG:  Solving for h, Initial residual = 0.0024374, Final residual = 7.38304e-07, No Iterations 4
T min/max   = min(T) [0 0 0 1 0 0 0] 311.763, max(T) [0 0 0 1 0 0 0] 397.098
DILUPBiCGStab:  Solving for h, Initial residual = 0.353171, Final residual = 0.00102854, No Iterations 2
GAMG:  Solving for p_rgh, Initial residual = 0.442824, Final residual = 0.00211158, No Iterations 3
time step continuity errors : sum local = 0.0443301, global = 0.00887167, cumulative = 0.0084773
rho min/max : 1.13016 1.17831
DILUPBiCGStab:  Solving for epsilon, Initial residual = 0.00359325, Final residual = 3.76723e-07, No Iterations 1
DILUPBiCGStab:  Solving for k, Initial residual = 0.766307, Final residual = 8.99245e-05, No Iterations 1
ExecutionTime = 0.703 s  ClockTime = 1 s

Time = 3


Evolving thermalBaffle for region baffle3DRegion
DICPCG:  Solving for h, Initial residual = 0.00377032, Final residual = 3.28929e-07, No Iterations 5
T min/max   = min(T) [0 0 0 1 0 0 0] 312, max(T) [0 0 0 1 0 0 0] 398.723
DILUPBiCGStab:  Solving for h, Initial residual = 0.0161423, Final residual = 3.30209e-05, No Iterations 2
GAMG:  Solving for p_rgh, Initial residual = 0.424897, Final residual = 0.00283098, No Iterations 3
time step continuity errors : sum local = 0.027441, global = 0.00526398, cumulative = 0.0137413
rho min/max : 1.12443 1.17725
DILUPBiCGStab:  Solving for epsilon, Initial residual = 0.002589, Final residual = 2.45775e-05, No Iterations 1
DILUPBiCGStab:  Solving for k, Initial residual = 0.0986118, Final residual = 8.84116e-06, No Iterations 1
ExecutionTime = 0.719 s  ClockTime = 1 s

Time = 4


Evolving thermalBaffle for region baffle3DRegion
DICPCG:  Solving for h, Initial residual = 0.00307613, Final residual = 3.75996e-07, No Iterations 5
T min/max   = min(T) [0 0 0 1 0 0 0] 311.667, max(T) [0 0 0 1 0 0 0] 400.217
DILUPBiCGStab:  Solving for h, Initial residual = 0.0103743, Final residual = 1.71756e-05, No Iterations 2
GAMG:  Solving for p_rgh, Initial residual = 0.354953, Final residual = 0.0020072, No Iterations 3
time step continuity errors : sum local = 0.00513694, global = 0.000997908, cumulative = 0.0147392
rho min/max : 1.11686 1.17643
DILUPBiCGStab:  Solving for epsilon, Initial residual = 0.00195802, Final residual = 1.73714e-05, No Iterations 1
DILUPBiCGStab:  Solving for k, Initial residual = 0.089173, Final residual = 0.00075748, No Iterations 1
ExecutionTime = 0.75 s  ClockTime = 1 s

Time = 5


Evolving thermalBaffle for region baffle3DRegion
DICPCG:  Solving for h, Initial residual = 0.00326788, Final residual = 3.90358e-07, No Iterations 5
T min/max   = min(T) [0 0 0 1 0 0 0] 311.226, max(T) [0 0 0 1 0 0 0] 401.734
DILUPBiCGStab:  Solving for h, Initial residual = 0.00812294, Final residual = 1.03318e-05, No Iterations 2
GAMG:  Solving for p_rgh, Initial residual = 0.177603, Final residual = 0.00150542, No Iterations 3
time step continuity errors : sum local = 0.0061451, global = -0.00133807, cumulative = 0.0134011
rho min/max : 1.11066 1.17644
DILUPBiCGStab:  Solving for epsilon, Initial residual = 0.00190319, Final residual = 1.62891e-05, No Iterations 1
DILUPBiCGStab:  Solving for k, Initial residual = 0.0444306, Final residual = 0.000382639, No Iterations 1
ExecutionTime = 0.766 s  ClockTime = 1 s

Time = 6


Evolving thermalBaffle for region baffle3DRegion
DICPCG:  Solving for h, Initial residual = 0.00350202, Final residual = 4.39608e-07, No Iterations 5
T min/max   = min(T) [0 0 0 1 0 0 0] 311.083, max(T) [0 0 0 1 0 0 0] 403.383
DILUPBiCGStab:  Solving for h, Initial residual = 0.00674668, Final residual = 7.44185e-06, No Iterations 2
GAMG:  Solving for p_rgh, Initial residual = 0.331057, Final residual = 0.00265193, No Iterations 3
time step continuity errors : sum local = 0.00579764, global = -0.0011343, cumulative = 0.0122668
rho min/max : 1.10457 1.17641
DILUPBiCGStab:  Solving for epsilon, Initial residual = 0.00182431, Final residual = 1.54258e-05, No Iterations 1
DILUPBiCGStab:  Solving for k, Initial residual = 0.0204538, Final residual = 0.000175523, No Iterations 1
ExecutionTime = 0.782 s  ClockTime = 1 s

Time = 7


Evolving thermalBaffle for region baffle3DRegion
DICPCG:  Solving for h, Initial residual = 0.00338152, Final residual = 4.53476e-07, No Iterations 5
T min/max   = min(T) [0 0 0 1 0 0 0] 311.137, max(T) [0 0 0 1 0 0 0] 404.954
DILUPBiCGStab:  Solving for h, Initial residual = 0.00578772, Final residual = 5.69454e-06, No Iterations 2
GAMG:  Solving for p_rgh, Initial residual = 0.61924, Final residual = 0.00352782, No Iterations 3
time step continuity errors : sum local = 0.00204109, global = -0.000412583, cumulative = 0.0118542
rho min/max : 1.09894 1.17643
DILUPBiCGStab:  Solving for epsilon, Initial residual = 0.0017477, Final residual = 1.4719e-05, No Iterations 1
DILUPBiCGStab:  Solving for k, Initial residual = 0.0123668, Final residual = 0.000102442, No Iterations 1
ExecutionTime = 0.797 s  ClockTime = 1 s

Time = 8


Evolving thermalBaffle for region baffle3DRegion
DICPCG:  Solving for h, Initial residual = 0.00313988, Final residual = 4.18712e-07, No Iterations 5
T min/max   = min(T) [0 0 0 1 0 0 0] 311.261, max(T) [0 0 0 1 0 0 0] 406.506
DILUPBiCGStab:  Solving for h, Initial residual = 0.00513858, Final residual = 4.59615e-05, No Iterations 1
GAMG:  Solving for p_rgh, Initial residual = 0.169193, Final residual = 0.000728729, No Iterations 3
time step continuity errors : sum local = 0.000657821, global = 0.00011871, cumulative = 0.011973
rho min/max : 1.09365 1.17648
DILUPBiCGStab:  Solving for epsilon, Initial residual = 0.00167906, Final residual = 1.38654e-05, No Iterations 1
DILUPBiCGStab:  Solving for k, Initial residual = 0.00865194, Final residual = 6.92208e-05, No Iterations 1
ExecutionTime = 0.813 s  ClockTime = 1 s

Time = 9


Evolving thermalBaffle for region baffle3DRegion
DICPCG:  Solving for h, Initial residual = 0.00281913, Final residual = 3.96661e-07, No Iterations 5
T min/max   = min(T) [0 0 0 1 0 0 0] 311.396, max(T) [0 0 0 1 0 0 0] 408.059
DILUPBiCGStab:  Solving for h, Initial residual = 0.00463401, Final residual = 3.57729e-05, No Iterations 1
GAMG:  Solving for p_rgh, Initial residual = 0.112144, Final residual = 0.000458859, No Iterations 4
time step continuity errors : sum local = 0.000355729, global = 7.51845e-05, cumulative = 0.0120481
rho min/max : 1.08856 1.17647
DILUPBiCGStab:  Solving for epsilon, Initial residual = 0.00162196, Final residual = 1.31198e-05, No Iterations 1
DILUPBiCGStab:  Solving for k, Initial residual = 0.00680146, Final residual = 5.24183e-05, No Iterations 1
ExecutionTime = 0.828 s  ClockTime = 1 s

Time = 10


Evolving thermalBaffle for region baffle3DRegion
DICPCG:  Solving for h, Initial residual = 0.00257638, Final residual = 3.57508e-07, No Iterations 5
T min/max   = min(T) [0 0 0 1 0 0 0] 311.532, max(T) [0 0 0 1 0 0 0] 409.567
DILUPBiCGStab:  Solving for h, Initial residual = 0.00431697, Final residual = 3.05411e-05, No Iterations 1
GAMG:  Solving for p_rgh, Initial residual = 0.0955554, Final residual = 0.000357167, No Iterations 4
time step continuity errors : sum local = 0.000165398, global = 3.57742e-05, cumulative = 0.0120839
rho min/max : 1.08244 1.17644
DILUPBiCGStab:  Solving for epsilon, Initial residual = 0.00156241, Final residual = 1.23894e-05, No Iterations 1
DILUPBiCGStab:  Solving for k, Initial residual = 0.00567655, Final residual = 4.29671e-05, No Iterations 1
ExecutionTime = 0.844 s  ClockTime = 1 s

Time = 11


Evolving thermalBaffle for region baffle3DRegion
DICPCG:  Solving for h, Initial residual = 0.00237128, Final residual = 3.14928e-07, No Iterations 5
T min/max   = min(T) [0 0 0 1 0 0 0] 311.675, max(T) [0 0 0 1 0 0 0] 410.919
DILUPBiCGStab:  Solving for h, Initial residual = 0.00407454, Final residual = 2.6103e-05, No Iterations 1
GAMG:  Solving for p_rgh, Initial residual = 0.0819262, Final residual = 0.000719025, No Iterations 2
time step continuity errors : sum local = 0.000216105, global = 6.27966e-05, cumulative = 0.0121467
rho min/max : 1.07715 1.17644
DILUPBiCGStab:  Solving for epsilon, Initial residual = 0.00150041, Final residual = 1.16284e-05, No Iterations 1
DILUPBiCGStab:  Solving for k, Initial residual = 0.00489064, Final residual = 3.59846e-05, No Iterations 1
ExecutionTime = 0.86 s  ClockTime = 1 s

Time = 12


Evolving thermalBaffle for region baffle3DRegion
DICPCG:  Solving for h, Initial residual = 0.00214697, Final residual = 2.86118e-07, No Iterations 5
T min/max   = min(T) [0 0 0 1 0 0 0] 311.822, max(T) [0 0 0 1 0 0 0] 412.102
DILUPBiCGStab:  Solving for h, Initial residual = 0.0038642, Final residual = 2.19201e-05, No Iterations 1
GAMG:  Solving for p_rgh, Initial residual = 0.0647896, Final residual = 0.000385982, No Iterations 3
time step continuity errors : sum local = 0.000107177, global = -2.25042e-05, cumulative = 0.0121242
rho min/max : 1.07277 1.17643
DILUPBiCGStab:  Solving for epsilon, Initial residual = 0.00143726, Final residual = 1.08483e-05, No Iterations 1
DILUPBiCGStab:  Solving for k, Initial residual = 0.00431101, Final residual = 3.04315e-05, No Iterations 1
ExecutionTime = 0.875 s  ClockTime = 1 s

Time = 13


Evolving thermalBaffle for region baffle3DRegion
DICPCG:  Solving for h, Initial residual = 0.00195057, Final residual = 2.80161e-07, No Iterations 5
T min/max   = min(T) [0 0 0 1 0 0 0] 311.967, max(T) [0 0 0 1 0 0 0] 413.207
DILUPBiCGStab:  Solving for h, Initial residual = 0.00368162, Final residual = 1.86568e-05, No Iterations 1
GAMG:  Solving for p_rgh, Initial residual = 0.0388757, Final residual = 0.000273714, No Iterations 3
time step continuity errors : sum local = 7.81228e-05, global = -1.58308e-05, cumulative = 0.0121084
rho min/max : 1.06868 1.17643
DILUPBiCGStab:  Solving for epsilon, Initial residual = 0.00137699, Final residual = 1.001e-05, No Iterations 1
DILUPBiCGStab:  Solving for k, Initial residual = 0.0038706, Final residual = 2.59331e-05, No Iterations 1
ExecutionTime = 0.907 s  ClockTime = 1 s

Time = 14


Evolving thermalBaffle for region baffle3DRegion
DICPCG:  Solving for h, Initial residual = 0.00174744, Final residual = 2.56848e-07, No Iterations 5
T min/max   = min(T) [0 0 0 1 0 0 0] 312.106, max(T) [0 0 0 1 0 0 0] 414.191
DILUPBiCGStab:  Solving for h, Initial residual = 0.00353928, Final residual = 1.63402e-05, No Iterations 1
GAMG:  Solving for p_rgh, Initial residual = 0.0227485, Final residual = 0.000106232, No Iterations 3
time step continuity errors : sum local = 3.16019e-05, global = -9.62224e-06, cumulative = 0.0120987
rho min/max : 1.06521 1.17643
DILUPBiCGStab:  Solving for epsilon, Initial residual = 0.00132302, Final residual = 9.20672e-06, No Iterations 1
DILUPBiCGStab:  Solving for k, Initial residual = 0.00352742, Final residual = 2.21294e-05, No Iterations 1
ExecutionTime = 0.907 s  ClockTime = 1 s

Time = 15


Evolving thermalBaffle for region baffle3DRegion
DICPCG:  Solving for h, Initial residual = 0.00157338, Final residual = 2.53105e-07, No Iterations 5
T min/max   = min(T) [0 0 0 1 0 0 0] 312.236, max(T) [0 0 0 1 0 0 0] 415.104
DILUPBiCGStab:  Solving for h, Initial residual = 0.00341623, Final residual = 1.445e-05, No Iterations 1
GAMG:  Solving for p_rgh, Initial residual = 0.0193755, Final residual = 0.000123873, No Iterations 3
time step continuity errors : sum local = 3.69177e-05, global = 7.55156e-06, cumulative = 0.0121063
rho min/max : 1.06202 1.17643
DILUPBiCGStab:  Solving for epsilon, Initial residual = 0.00127451, Final residual = 8.47349e-06, No Iterations 1
DILUPBiCGStab:  Solving for k, Initial residual = 0.00325772, Final residual = 1.93369e-05, No Iterations 1
ExecutionTime = 0.923 s  ClockTime = 1 s

Time = 16


Evolving thermalBaffle for region baffle3DRegion
DICPCG:  Solving for h, Initial residual = 0.00140981, Final residual = 2.42595e-07, No Iterations 5
T min/max   = min(T) [0 0 0 1 0 0 0] 312.356, max(T) [0 0 0 1 0 0 0] 415.927
DILUPBiCGStab:  Solving for h, Initial residual = 0.0033171, Final residual = 1.29781e-05, No Iterations 1
GAMG:  Solving for p_rgh, Initial residual = 0.0151771, Final residual = 0.000124536, No Iterations 3
time step continuity errors : sum local = 3.61701e-05, global = 6.99455e-06, cumulative = 0.0121133
rho min/max : 1.05925 1.17643
DILUPBiCGStab:  Solving for epsilon, Initial residual = 0.00122928, Final residual = 7.79879e-06, No Iterations 1
DILUPBiCGStab:  Solving for k, Initial residual = 0.00303809, Final residual = 1.70137e-05, No Iterations 1
ExecutionTime = 0.938 s  ClockTime = 1 s

Time = 17


Evolving thermalBaffle for region baffle3DRegion
DICPCG:  Solving for h, Initial residual = 0.00127551, Final residual = 9.68888e-07, No Iterations 4
T min/max   = min(T) [0 0 0 1 0 0 0] 312.468, max(T) [0 0 0 1 0 0 0] 416.686
DILUPBiCGStab:  Solving for h, Initial residual = 0.00322482, Final residual = 1.16094e-05, No Iterations 1
GAMG:  Solving for p_rgh, Initial residual = 0.0131933, Final residual = 0.000106463, No Iterations 3
time step continuity errors : sum local = 2.98555e-05, global = 5.70161e-06, cumulative = 0.012119
rho min/max : 1.05671 1.17643
DILUPBiCGStab:  Solving for epsilon, Initial residual = 0.00118913, Final residual = 7.20481e-06, No Iterations 1
DILUPBiCGStab:  Solving for k, Initial residual = 0.00285657, Final residual = 1.50831e-05, No Iterations 1
ExecutionTime = 0.954 s  ClockTime = 1 s

Time = 18


Evolving thermalBaffle for region baffle3DRegion
DICPCG:  Solving for h, Initial residual = 0.00114934, Final residual = 8.59197e-07, No Iterations 4
T min/max   = min(T) [0 0 0 1 0 0 0] 312.573, max(T) [0 0 0 1 0 0 0] 417.347
DILUPBiCGStab:  Solving for h, Initial residual = 0.00314668, Final residual = 1.08067e-05, No Iterations 1
GAMG:  Solving for p_rgh, Initial residual = 0.012304, Final residual = 8.20525e-05, No Iterations 3
time step continuity errors : sum local = 2.24219e-05, global = 4.45167e-06, cumulative = 0.0121234
rho min/max : 1.05464 1.17643
DILUPBiCGStab:  Solving for epsilon, Initial residual = 0.00115379, Final residual = 6.68219e-06, No Iterations 1
DILUPBiCGStab:  Solving for k, Initial residual = 0.00270276, Final residual = 1.34711e-05, No Iterations 1
ExecutionTime = 0.969 s  ClockTime = 1 s

Time = 19


Evolving thermalBaffle for region baffle3DRegion
DICPCG:  Solving for h, Initial residual = 0.00105333, Final residual = 7.77293e-07, No Iterations 4
T min/max   = min(T) [0 0 0 1 0 0 0] 312.68, max(T) [0 0 0 1 0 0 0] 417.951
DILUPBiCGStab:  Solving for h, Initial residual = 0.0030756, Final residual = 1.00395e-05, No Iterations 1
GAMG:  Solving for p_rgh, Initial residual = 0.0117057, Final residual = 7.10655e-05, No Iterations 3
time step continuity errors : sum local = 1.90589e-05, global = 3.86457e-06, cumulative = 0.0121273
rho min/max : 1.05276 1.17643
DILUPBiCGStab:  Solving for epsilon, Initial residual = 0.00112199, Final residual = 6.23354e-06, No Iterations 1
DILUPBiCGStab:  Solving for k, Initial residual = 0.00257042, Final residual = 1.21358e-05, No Iterations 1
ExecutionTime = 0.985 s  ClockTime = 1 s

Time = 20


Evolving thermalBaffle for region baffle3DRegion
DICPCG:  Solving for h, Initial residual = 0.000959414, Final residual = 6.90659e-07, No Iterations 4
T min/max   = min(T) [0 0 0 1 0 0 0] 312.797, max(T) [0 0 0 1 0 0 0] 418.477
DILUPBiCGStab:  Solving for h, Initial residual = 0.00301178, Final residual = 9.14929e-06, No Iterations 1
GAMG:  Solving for p_rgh, Initial residual = 0.0118787, Final residual = 6.77972e-05, No Iterations 3
time step continuity errors : sum local = 1.79023e-05, global = 3.61217e-06, cumulative = 0.0121309
rho min/max : 1.05125 1.17643
DILUPBiCGStab:  Solving for epsilon, Initial residual = 0.00109242, Final residual = 5.83113e-06, No Iterations 1
DILUPBiCGStab:  Solving for k, Initial residual = 0.00245404, Final residual = 1.10438e-05, No Iterations 1
ExecutionTime = 1.001 s  ClockTime = 1 s

Time = 21


Evolving thermalBaffle for region baffle3DRegion
DICPCG:  Solving for h, Initial residual = 0.00088831, Final residual = 6.49875e-07, No Iterations 4
T min/max   = min(T) [0 0 0 1 0 0 0] 312.913, max(T) [0 0 0 1 0 0 0] 418.965
DILUPBiCGStab:  Solving for h, Initial residual = 0.00294398, Final residual = 8.1983e-06, No Iterations 1
GAMG:  Solving for p_rgh, Initial residual = 0.0100547, Final residual = 6.68365e-05, No Iterations 3
time step continuity errors : sum local = 1.74107e-05, global = 3.52158e-06, cumulative = 0.0121344
rho min/max : 1.04986 1.17643
DILUPBiCGStab:  Solving for epsilon, Initial residual = 0.00106527, Final residual = 5.45769e-06, No Iterations 1
DILUPBiCGStab:  Solving for k, Initial residual = 0.00235336, Final residual = 1.01049e-05, No Iterations 1
ExecutionTime = 1.016 s  ClockTime = 1 s

Time = 22


Evolving thermalBaffle for region baffle3DRegion
DICPCG:  Solving for h, Initial residual = 0.000812045, Final residual = 5.71654e-07, No Iterations 4
T min/max   = min(T) [0 0 0 1 0 0 0] 313.023, max(T) [0 0 0 1 0 0 0] 419.388
DILUPBiCGStab:  Solving for h, Initial residual = 0.0028854, Final residual = 7.73209e-06, No Iterations 1
GAMG:  Solving for p_rgh, Initial residual = 0.010219, Final residual = 6.6397e-05, No Iterations 3
time step continuity errors : sum local = 1.70453e-05, global = 3.36987e-06, cumulative = 0.0121378
rho min/max : 1.04876 1.17643
DILUPBiCGStab:  Solving for epsilon, Initial residual = 0.00104008, Final residual = 5.12441e-06, No Iterations 1
DILUPBiCGStab:  Solving for k, Initial residual = 0.00226428, Final residual = 9.28179e-06, No Iterations 1
ExecutionTime = 1.048 s  ClockTime = 1 s

Time = 23


Evolving thermalBaffle for region baffle3DRegion
DICPCG:  Solving for h, Initial residual = 0.000758261, Final residual = 5.33874e-07, No Iterations 4
T min/max   = min(T) [0 0 0 1 0 0 0] 313.123, max(T) [0 0 0 1 0 0 0] 419.795
DILUPBiCGStab:  Solving for h, Initial residual = 0.00284023, Final residual = 7.47797e-06, No Iterations 1
GAMG:  Solving for p_rgh, Initial residual = 0.00998407, Final residual = 6.42157e-05, No Iterations 3
time step continuity errors : sum local = 1.62559e-05, global = 3.22893e-06, cumulative = 0.012141
rho min/max : 1.04747 1.17643
DILUPBiCGStab:  Solving for epsilon, Initial residual = 0.00101712, Final residual = 4.81469e-06, No Iterations 1
DILUPBiCGStab:  Solving for k, Initial residual = 0.00218502, Final residual = 8.55671e-06, No Iterations 1
ExecutionTime = 1.094 s  ClockTime = 1 s

Time = 24


Evolving thermalBaffle for region baffle3DRegion
DICPCG:  Solving for h, Initial residual = 0.000699487, Final residual = 4.81333e-07, No Iterations 4
T min/max   = min(T) [0 0 0 1 0 0 0] 313.21, max(T) [0 0 0 1 0 0 0] 420.15
DILUPBiCGStab:  Solving for h, Initial residual = 0.00279464, Final residual = 7.05195e-06, No Iterations 1
GAMG:  Solving for p_rgh, Initial residual = 0.00913514, Final residual = 6.13164e-05, No Iterations 3
time step continuity errors : sum local = 1.53171e-05, global = 3.05073e-06, cumulative = 0.0121441
rho min/max : 1.04595 1.17643
DILUPBiCGStab:  Solving for epsilon, Initial residual = 0.000995426, Final residual = 4.53186e-06, No Iterations 1
DILUPBiCGStab:  Solving for k, Initial residual = 0.00211373, Final residual = 7.92078e-06, No Iterations 1
ExecutionTime = 1.126 s  ClockTime = 1 s

Time = 25


Evolving thermalBaffle for region baffle3DRegion
DICPCG:  Solving for h, Initial residual = 0.000659884, Final residual = 4.57736e-07, No Iterations 4
T min/max   = min(T) [0 0 0 1 0 0 0] 313.284, max(T) [0 0 0 1 0 0 0] 420.498
DILUPBiCGStab:  Solving for h, Initial residual = 0.00274305, Final residual = 6.31647e-06, No Iterations 1
GAMG:  Solving for p_rgh, Initial residual = 0.0111265, Final residual = 6.64356e-05, No Iterations 3
time step continuity errors : sum local = 1.64477e-05, global = 3.56565e-06, cumulative = 0.0121477
rho min/max : 1.04451 1.17642
DILUPBiCGStab:  Solving for epsilon, Initial residual = 0.000975534, Final residual = 4.27196e-06, No Iterations 1
DILUPBiCGStab:  Solving for k, Initial residual = 0.00204943, Final residual = 7.36814e-06, No Iterations 1
ExecutionTime = 1.157 s  ClockTime = 1 s

Time = 26


Evolving thermalBaffle for region baffle3DRegion
DICPCG:  Solving for h, Initial residual = 0.000616745, Final residual = 4.05005e-07, No Iterations 4
T min/max   = min(T) [0 0 0 1 0 0 0] 313.349, max(T) [0 0 0 1 0 0 0] 420.815
DILUPBiCGStab:  Solving for h, Initial residual = 0.00269969, Final residual = 6.05056e-06, No Iterations 1
GAMG:  Solving for p_rgh, Initial residual = 0.0089101, Final residual = 6.17485e-05, No Iterations 3
time step continuity errors : sum local = 1.50621e-05, global = 3.11537e-06, cumulative = 0.0121508
rho min/max : 1.04315 1.17642
DILUPBiCGStab:  Solving for epsilon, Initial residual = 0.000957172, Final residual = 4.03758e-06, No Iterations 1
DILUPBiCGStab:  Solving for k, Initial residual = 0.00199088, Final residual = 6.88329e-06, No Iterations 1
ExecutionTime = 1.188 s  ClockTime = 1 s

Time = 27


Evolving thermalBaffle for region baffle3DRegion
DICPCG:  Solving for h, Initial residual = 0.000591797, Final residual = 3.96046e-07, No Iterations 4
T min/max   = min(T) [0 0 0 1 0 0 0] 313.408, max(T) [0 0 0 1 0 0 0] 421.136
DILUPBiCGStab:  Solving for h, Initial residual = 0.00266371, Final residual = 5.90615e-06, No Iterations 1
GAMG:  Solving for p_rgh, Initial residual = 0.00784233, Final residual = 5.80395e-05, No Iterations 3
time step continuity errors : sum local = 1.39865e-05, global = 2.8268e-06, cumulative = 0.0121536
rho min/max : 1.04184 1.17642
DILUPBiCGStab:  Solving for epsilon, Initial residual = 0.000940062, Final residual = 3.8253e-06, No Iterations 1
DILUPBiCGStab:  Solving for k, Initial residual = 0.00193846, Final residual = 6.46489e-06, No Iterations 1
ExecutionTime = 1.204 s  ClockTime = 1 s

Time = 28


Evolving thermalBaffle for region baffle3DRegion
DICPCG:  Solving for h, Initial residual = 0.000557033, Final residual = 3.61745e-07, No Iterations 4
T min/max   = min(T) [0 0 0 1 0 0 0] 313.463, max(T) [0 0 0 1 0 0 0] 421.42
DILUPBiCGStab:  Solving for h, Initial residual = 0.00262885, Final residual = 5.62106e-06, No Iterations 1
GAMG:  Solving for p_rgh, Initial residual = 0.00706948, Final residual = 5.32724e-05, No Iterations 3
time step continuity errors : sum local = 1.2685e-05, global = 2.58322e-06, cumulative = 0.0121562
rho min/max : 1.04062 1.17642
DILUPBiCGStab:  Solving for epsilon, Initial residual = 0.000924103, Final residual = 3.63142e-06, No Iterations 1
DILUPBiCGStab:  Solving for k, Initial residual = 0.00188978, Final residual = 6.10028e-06, No Iterations 1
ExecutionTime = 1.219 s  ClockTime = 1 s

Time = 29


Evolving thermalBaffle for region baffle3DRegion
DICPCG:  Solving for h, Initial residual = 0.000535956, Final residual = 3.56281e-07, No Iterations 4
T min/max   = min(T) [0 0 0 1 0 0 0] 313.513, max(T) [0 0 0 1 0 0 0] 421.704
DILUPBiCGStab:  Solving for h, Initial residual = 0.0025882, Final residual = 5.06235e-06, No Iterations 1
GAMG:  Solving for p_rgh, Initial residual = 0.0066087, Final residual = 5.03211e-05, No Iterations 3
time step continuity errors : sum local = 1.1854e-05, global = 2.40992e-06, cumulative = 0.0121586
rho min/max : 1.03944 1.17642
DILUPBiCGStab:  Solving for epsilon, Initial residual = 0.000909274, Final residual = 3.45507e-06, No Iterations 1
DILUPBiCGStab:  Solving for k, Initial residual = 0.00184491, Final residual = 5.76266e-06, No Iterations 1
ExecutionTime = 1.235 s  ClockTime = 1 s

Time = 30


Evolving thermalBaffle for region baffle3DRegion
DICPCG:  Solving for h, Initial residual = 0.000507238, Final residual = 3.21424e-07, No Iterations 4
T min/max   = min(T) [0 0 0 1 0 0 0] 313.561, max(T) [0 0 0 1 0 0 0] 421.96
DILUPBiCGStab:  Solving for h, Initial residual = 0.00255349, Final residual = 4.95135e-06, No Iterations 1
GAMG:  Solving for p_rgh, Initial residual = 0.00653657, Final residual = 4.81715e-05, No Iterations 3
time step continuity errors : sum local = 1.12381e-05, global = 2.29312e-06, cumulative = 0.0121609
rho min/max : 1.03833 1.17642
DILUPBiCGStab:  Solving for epsilon, Initial residual = 0.000895248, Final residual = 3.29751e-06, No Iterations 1
DILUPBiCGStab:  Solving for k, Initial residual = 0.00180301, Final residual = 5.45914e-06, No Iterations 1
ExecutionTime = 1.251 s  ClockTime = 1 s

Time = 31


Evolving thermalBaffle for region baffle3DRegion
DICPCG:  Solving for h, Initial residual = 0.000494518, Final residual = 3.21236e-07, No Iterations 4
T min/max   = min(T) [0 0 0 1 0 0 0] 313.606, max(T) [0 0 0 1 0 0 0] 422.227
DILUPBiCGStab:  Solving for h, Initial residual = 0.00252399, Final residual = 4.86398e-06, No Iterations 1
GAMG:  Solving for p_rgh, Initial residual = 0.00641873, Final residual = 4.68402e-05, No Iterations 3
time step continuity errors : sum local = 1.08171e-05, global = 2.19413e-06, cumulative = 0.0121631
rho min/max : 1.03724 1.17642
DILUPBiCGStab:  Solving for epsilon, Initial residual = 0.000881999, Final residual = 3.15218e-06, No Iterations 1
DILUPBiCGStab:  Solving for k, Initial residual = 0.00176403, Final residual = 5.18745e-06, No Iterations 1
ExecutionTime = 1.282 s  ClockTime = 1 s

Time = 32


Evolving thermalBaffle for region baffle3DRegion
DICPCG:  Solving for h, Initial residual = 0.000471105, Final residual = 2.91067e-07, No Iterations 4
T min/max   = min(T) [0 0 0 1 0 0 0] 313.649, max(T) [0 0 0 1 0 0 0] 422.467
DILUPBiCGStab:  Solving for h, Initial residual = 0.00249641, Final residual = 4.70705e-06, No Iterations 1
GAMG:  Solving for p_rgh, Initial residual = 0.00689372, Final residual = 4.51761e-05, No Iterations 3
time step continuity errors : sum local = 1.03526e-05, global = 2.16646e-06, cumulative = 0.0121653
rho min/max : 1.0362 1.17642
DILUPBiCGStab:  Solving for epsilon, Initial residual = 0.000869975, Final residual = 3.02121e-06, No Iterations 1
DILUPBiCGStab:  Solving for k, Initial residual = 0.00172781, Final residual = 4.93541e-06, No Iterations 1
ExecutionTime = 1.298 s  ClockTime = 1 s

Time = 33


Evolving thermalBaffle for region baffle3DRegion
DICPCG:  Solving for h, Initial residual = 0.000463884, Final residual = 3.00525e-07, No Iterations 4
T min/max   = min(T) [0 0 0 1 0 0 0] 313.691, max(T) [0 0 0 1 0 0 0] 422.723
DILUPBiCGStab:  Solving for h, Initial residual = 0.0024618, Final residual = 4.24657e-06, No Iterations 1
GAMG:  Solving for p_rgh, Initial residual = 0.00592787, Final residual = 4.35594e-05, No Iterations 3
time step continuity errors : sum local = 9.89081e-06, global = 2.03451e-06, cumulative = 0.0121673
rho min/max : 1.03518 1.17642
DILUPBiCGStab:  Solving for epsilon, Initial residual = 0.000858607, Final residual = 2.90433e-06, No Iterations 1
DILUPBiCGStab:  Solving for k, Initial residual = 0.00169378, Final residual = 4.70424e-06, No Iterations 1
ExecutionTime = 1.313 s  ClockTime = 1 s

Time = 34


Evolving thermalBaffle for region baffle3DRegion
DICPCG:  Solving for h, Initial residual = 0.000442357, Final residual = 2.72174e-07, No Iterations 4
T min/max   = min(T) [0 0 0 1 0 0 0] 313.731, max(T) [0 0 0 1 0 0 0] 422.948
DILUPBiCGStab:  Solving for h, Initial residual = 0.00243239, Final residual = 4.1837e-06, No Iterations 1
GAMG:  Solving for p_rgh, Initial residual = 0.0059112, Final residual = 4.25188e-05, No Iterations 3
time step continuity errors : sum local = 9.569e-06, global = 1.97859e-06, cumulative = 0.0121693
rho min/max : 1.0342 1.17642
DILUPBiCGStab:  Solving for epsilon, Initial residual = 0.00084761, Final residual = 2.79452e-06, No Iterations 1
DILUPBiCGStab:  Solving for k, Initial residual = 0.00166173, Final residual = 4.49192e-06, No Iterations 1
ExecutionTime = 1.338 s  ClockTime = 1 s

Time = 35


Evolving thermalBaffle for region baffle3DRegion
DICPCG:  Solving for h, Initial residual = 0.000439178, Final residual = 2.88343e-07, No Iterations 4
T min/max   = min(T) [0 0 0 1 0 0 0] 313.769, max(T) [0 0 0 1 0 0 0] 423.194
DILUPBiCGStab:  Solving for h, Initial residual = 0.00240697, Final residual = 4.103e-06, No Iterations 1
GAMG:  Solving for p_rgh, Initial residual = 0.00578545, Final residual = 4.14872e-05, No Iterations 3
time step continuity errors : sum local = 9.25333e-06, global = 1.89311e-06, cumulative = 0.0121712
rho min/max : 1.03322 1.17642
DILUPBiCGStab:  Solving for epsilon, Initial residual = 0.000837376, Final residual = 2.69206e-06, No Iterations 1
DILUPBiCGStab:  Solving for k, Initial residual = 0.00163197, Final residual = 4.29422e-06, No Iterations 1
ExecutionTime = 1.371 s  ClockTime = 1 s

Time = 36


Evolving thermalBaffle for region baffle3DRegion
DICPCG:  Solving for h, Initial residual = 0.000418519, Final residual = 2.57164e-07, No Iterations 4
T min/max   = min(T) [0 0 0 1 0 0 0] 313.807, max(T) [0 0 0 1 0 0 0] 423.408
DILUPBiCGStab:  Solving for h, Initial residual = 0.00238287, Final residual = 4.25337e-06, No Iterations 1
GAMG:  Solving for p_rgh, Initial residual = 0.00558128, Final residual = 4.03851e-05, No Iterations 3
time step continuity errors : sum local = 8.92903e-06, global = 1.83679e-06, cumulative = 0.012173
rho min/max : 1.03228 1.17642
DILUPBiCGStab:  Solving for epsilon, Initial residual = 0.000827611, Final residual = 2.597e-06, No Iterations 1
DILUPBiCGStab:  Solving for k, Initial residual = 0.00160358, Final residual = 4.11248e-06, No Iterations 1
ExecutionTime = 1.404 s  ClockTime = 1 s

Time = 37


Evolving thermalBaffle for region baffle3DRegion
DICPCG:  Solving for h, Initial residual = 0.000419399, Final residual = 2.81185e-07, No Iterations 4
T min/max   = min(T) [0 0 0 1 0 0 0] 313.844, max(T) [0 0 0 1 0 0 0] 423.649
DILUPBiCGStab:  Solving for h, Initial residual = 0.00235837, Final residual = 3.92025e-06, No Iterations 1
GAMG:  Solving for p_rgh, Initial residual = 0.00543813, Final residual = 3.89709e-05, No Iterations 3
time step continuity errors : sum local = 8.53894e-06, global = 1.74199e-06, cumulative = 0.0121747
rho min/max : 1.03134 1.17642
DILUPBiCGStab:  Solving for epsilon, Initial residual = 0.000818201, Final residual = 2.50807e-06, No Iterations 1
DILUPBiCGStab:  Solving for k, Initial residual = 0.00157642, Final residual = 3.94786e-06, No Iterations 1
ExecutionTime = 1.43 s  ClockTime = 1 s

Time = 38


Evolving thermalBaffle for region baffle3DRegion
DICPCG:  Solving for h, Initial residual = 0.000398126, Final residual = 2.44474e-07, No Iterations 4
T min/max   = min(T) [0 0 0 1 0 0 0] 313.879, max(T) [0 0 0 1 0 0 0] 423.851
DILUPBiCGStab:  Solving for h, Initial residual = 0.00233534, Final residual = 4.09242e-06, No Iterations 1
GAMG:  Solving for p_rgh, Initial residual = 0.00539971, Final residual = 3.793e-05, No Iterations 3
time step continuity errors : sum local = 8.2437e-06, global = 1.68975e-06, cumulative = 0.0121764
rho min/max : 1.03043 1.17642
DILUPBiCGStab:  Solving for epsilon, Initial residual = 0.000809421, Final residual = 2.42336e-06, No Iterations 1
DILUPBiCGStab:  Solving for k, Initial residual = 0.00155111, Final residual = 3.79273e-06, No Iterations 1
ExecutionTime = 1.456 s  ClockTime = 1 s

Time = 39


Evolving thermalBaffle for region baffle3DRegion
DICPCG:  Solving for h, Initial residual = 0.000402703, Final residual = 2.74928e-07, No Iterations 4
T min/max   = min(T) [0 0 0 1 0 0 0] 313.914, max(T) [0 0 0 1 0 0 0] 424.09
DILUPBiCGStab:  Solving for h, Initial residual = 0.00230988, Final residual = 3.72931e-06, No Iterations 1
GAMG:  Solving for p_rgh, Initial residual = 0.00507711, Final residual = 3.69655e-05, No Iterations 3
time step continuity errors : sum local = 7.97029e-06, global = 1.65007e-06, cumulative = 0.0121781
rho min/max : 1.02951 1.17642
DILUPBiCGStab:  Solving for epsilon, Initial residual = 0.000800895, Final residual = 2.34535e-06, No Iterations 1
DILUPBiCGStab:  Solving for k, Initial residual = 0.00152674, Final residual = 3.64964e-06, No Iterations 1
ExecutionTime = 1.487 s  ClockTime = 1 s

Time = 40


Evolving thermalBaffle for region baffle3DRegion
DICPCG:  Solving for h, Initial residual = 0.000379934, Final residual = 2.31242e-07, No Iterations 4
T min/max   = min(T) [0 0 0 1 0 0 0] 313.948, max(T) [0 0 0 1 0 0 0] 424.282
DILUPBiCGStab:  Solving for h, Initial residual = 0.00228929, Final residual = 3.89903e-06, No Iterations 1
GAMG:  Solving for p_rgh, Initial residual = 0.00525704, Final residual = 3.63918e-05, No Iterations 3
time step continuity errors : sum local = 7.78893e-06, global = 1.60711e-06, cumulative = 0.0121797
rho min/max : 1.02863 1.17642
DILUPBiCGStab:  Solving for epsilon, Initial residual = 0.000793065, Final residual = 2.2721e-06, No Iterations 1
DILUPBiCGStab:  Solving for k, Initial residual = 0.00150373, Final residual = 3.51503e-06, No Iterations 1
ExecutionTime = 1.513 s  ClockTime = 1 s

Time = 41


Evolving thermalBaffle for region baffle3DRegion
DICPCG:  Solving for h, Initial residual = 0.000388393, Final residual = 2.70403e-07, No Iterations 4
T min/max   = min(T) [0 0 0 1 0 0 0] 313.981, max(T) [0 0 0 1 0 0 0] 424.518
DILUPBiCGStab:  Solving for h, Initial residual = 0.00226634, Final residual = 3.56889e-06, No Iterations 1
GAMG:  Solving for p_rgh, Initial residual = 0.00504448, Final residual = 3.59296e-05, No Iterations 3
time step continuity errors : sum local = 7.63364e-06, global = 1.56778e-06, cumulative = 0.0121812
rho min/max : 1.02774 1.17642
DILUPBiCGStab:  Solving for epsilon, Initial residual = 0.000785257, Final residual = 2.20429e-06, No Iterations 1
DILUPBiCGStab:  Solving for k, Initial residual = 0.00148141, Final residual = 3.39048e-06, No Iterations 1
ExecutionTime = 1.534 s  ClockTime = 2 s

Time = 42


Evolving thermalBaffle for region baffle3DRegion
DICPCG:  Solving for h, Initial residual = 0.000362811, Final residual = 2.16403e-07, No Iterations 4
T min/max   = min(T) [0 0 0 1 0 0 0] 314.013, max(T) [0 0 0 1 0 0 0] 424.697
DILUPBiCGStab:  Solving for h, Initial residual = 0.00224722, Final residual = 3.72274e-06, No Iterations 1
GAMG:  Solving for p_rgh, Initial residual = 0.00493563, Final residual = 3.47436e-05, No Iterations 3
time step continuity errors : sum local = 7.32694e-06, global = 1.52204e-06, cumulative = 0.0121828
rho min/max : 1.02689 1.17642
DILUPBiCGStab:  Solving for epsilon, Initial residual = 0.000777813, Final residual = 2.13944e-06, No Iterations 1
DILUPBiCGStab:  Solving for k, Initial residual = 0.00146053, Final residual = 3.27126e-06, No Iterations 1
ExecutionTime = 1.559 s  ClockTime = 2 s

Time = 43


Evolving thermalBaffle for region baffle3DRegion
DICPCG:  Solving for h, Initial residual = 0.000375876, Final residual = 2.66631e-07, No Iterations 4
T min/max   = min(T) [0 0 0 1 0 0 0] 314.045, max(T) [0 0 0 1 0 0 0] 424.933
DILUPBiCGStab:  Solving for h, Initial residual = 0.00222589, Final residual = 3.46265e-06, No Iterations 1
GAMG:  Solving for p_rgh, Initial residual = 0.00455338, Final residual = 3.34637e-05, No Iterations 3
time step continuity errors : sum local = 7.00791e-06, global = 1.44901e-06, cumulative = 0.0121842
rho min/max : 1.02603 1.17642
DILUPBiCGStab:  Solving for epsilon, Initial residual = 0.000770831, Final residual = 2.0814e-06, No Iterations 1
DILUPBiCGStab:  Solving for k, Initial residual = 0.00144077, Final residual = 3.16026e-06, No Iterations 1
ExecutionTime = 1.582 s  ClockTime = 2 s

Time = 44


Evolving thermalBaffle for region baffle3DRegion
DICPCG:  Solving for h, Initial residual = 0.000346512, Final residual = 2.00077e-07, No Iterations 4
T min/max   = min(T) [0 0 0 1 0 0 0] 314.076, max(T) [0 0 0 1 0 0 0] 425.099
DILUPBiCGStab:  Solving for h, Initial residual = 0.00220829, Final residual = 3.58548e-06, No Iterations 1
GAMG:  Solving for p_rgh, Initial residual = 0.00524037, Final residual = 3.26411e-05, No Iterations 3
time step continuity errors : sum local = 6.78602e-06, global = 1.40248e-06, cumulative = 0.0121856
rho min/max : 1.02522 1.17642
DILUPBiCGStab:  Solving for epsilon, Initial residual = 0.000764061, Final residual = 2.02647e-06, No Iterations 1
DILUPBiCGStab:  Solving for k, Initial residual = 0.00142173, Final residual = 3.0557e-06, No Iterations 1
ExecutionTime = 1.601 s  ClockTime = 2 s

Time = 45


Evolving thermalBaffle for region baffle3DRegion
DICPCG:  Solving for h, Initial residual = 0.000365241, Final residual = 2.63918e-07, No Iterations 4
T min/max   = min(T) [0 0 0 1 0 0 0] 314.106, max(T) [0 0 0 1 0 0 0] 425.337
DILUPBiCGStab:  Solving for h, Initial residual = 0.00218876, Final residual = 3.4113e-06, No Iterations 1
GAMG:  Solving for p_rgh, Initial residual = 0.00509984, Final residual = 3.19973e-05, No Iterations 3
time step continuity errors : sum local = 6.61056e-06, global = 1.37934e-06, cumulative = 0.012187
rho min/max : 1.02438 1.17642
DILUPBiCGStab:  Solving for epsilon, Initial residual = 0.000757612, Final residual = 1.97341e-06, No Iterations 1
DILUPBiCGStab:  Solving for k, Initial residual = 0.00140341, Final residual = 2.95912e-06, No Iterations 1
ExecutionTime = 1.619 s  ClockTime = 2 s

Time = 46


Evolving thermalBaffle for region baffle3DRegion
DICPCG:  Solving for h, Initial residual = 0.000330599, Final residual = 1.80773e-07, No Iterations 4
T min/max   = min(T) [0 0 0 1 0 0 0] 314.135, max(T) [0 0 0 1 0 0 0] 425.488
DILUPBiCGStab:  Solving for h, Initial residual = 0.00217242, Final residual = 3.49234e-06, No Iterations 1
GAMG:  Solving for p_rgh, Initial residual = 0.00489361, Final residual = 3.11973e-05, No Iterations 3
time step continuity errors : sum local = 6.40138e-06, global = 1.32992e-06, cumulative = 0.0121883
rho min/max : 1.0236 1.17642
DILUPBiCGStab:  Solving for epsilon, Initial residual = 0.000751315, Final residual = 1.92488e-06, No Iterations 1
DILUPBiCGStab:  Solving for k, Initial residual = 0.00138575, Final residual = 2.86436e-06, No Iterations 1
ExecutionTime = 1.642 s  ClockTime = 2 s

Time = 47


Evolving thermalBaffle for region baffle3DRegion
DICPCG:  Solving for h, Initial residual = 0.000356583, Final residual = 2.62806e-07, No Iterations 4
T min/max   = min(T) [0 0 0 1 0 0 0] 314.164, max(T) [0 0 0 1 0 0 0] 425.732
DILUPBiCGStab:  Solving for h, Initial residual = 0.0021545, Final residual = 3.42685e-06, No Iterations 1
GAMG:  Solving for p_rgh, Initial residual = 0.00436657, Final residual = 3.05298e-05, No Iterations 3
time step continuity errors : sum local = 6.22145e-06, global = 1.29596e-06, cumulative = 0.0121896
rho min/max : 1.02278 1.17642
DILUPBiCGStab:  Solving for epsilon, Initial residual = 0.00074523, Final residual = 1.87735e-06, No Iterations 1
DILUPBiCGStab:  Solving for k, Initial residual = 0.00136898, Final residual = 2.77972e-06, No Iterations 1
ExecutionTime = 1.662 s  ClockTime = 2 s

Time = 48


Evolving thermalBaffle for region baffle3DRegion
DICPCG:  Solving for h, Initial residual = 0.000317786, Final residual = 1.60018e-07, No Iterations 4
T min/max   = min(T) [0 0 0 1 0 0 0] 314.192, max(T) [0 0 0 1 0 0 0] 425.867
DILUPBiCGStab:  Solving for h, Initial residual = 0.00213925, Final residual = 3.47823e-06, No Iterations 1
GAMG:  Solving for p_rgh, Initial residual = 0.00423721, Final residual = 2.9959e-05, No Iterations 3
time step continuity errors : sum local = 6.06865e-06, global = 1.25643e-06, cumulative = 0.0121909
rho min/max : 1.02202 1.17642
DILUPBiCGStab:  Solving for epsilon, Initial residual = 0.000739192, Final residual = 1.83186e-06, No Iterations 1
DILUPBiCGStab:  Solving for k, Initial residual = 0.00135258, Final residual = 2.70085e-06, No Iterations 1
ExecutionTime = 1.683 s  ClockTime = 2 s

Time = 49


Evolving thermalBaffle for region baffle3DRegion
DICPCG:  Solving for h, Initial residual = 0.000350252, Final residual = 2.63757e-07, No Iterations 4
T min/max   = min(T) [0 0 0 1 0 0 0] 314.22, max(T) [0 0 0 1 0 0 0] 426.121
DILUPBiCGStab:  Solving for h, Initial residual = 0.0021229, Final residual = 3.53944e-06, No Iterations 1
GAMG:  Solving for p_rgh, Initial residual = 0.00426191, Final residual = 2.90325e-05, No Iterations 3
time step continuity errors : sum local = 5.84316e-06, global = 1.22732e-06, cumulative = 0.0121921
rho min/max : 1.02121 1.17642
DILUPBiCGStab:  Solving for epsilon, Initial residual = 0.000733446, Final residual = 1.78795e-06, No Iterations 1
DILUPBiCGStab:  Solving for k, Initial residual = 0.00133701, Final residual = 2.62416e-06, No Iterations 1
ExecutionTime = 1.709 s  ClockTime = 2 s

Time = 50


Evolving thermalBaffle for region baffle3DRegion
DICPCG:  Solving for h, Initial residual = 0.000309363, Final residual = 7.87491e-07, No Iterations 3
T min/max   = min(T) [0 0 0 1 0 0 0] 314.247, max(T) [0 0 0 1 0 0 0] 426.236
DILUPBiCGStab:  Solving for h, Initial residual = 0.00210844, Final residual = 3.53841e-06, No Iterations 1
GAMG:  Solving for p_rgh, Initial residual = 0.00418638, Final residual = 2.86138e-05, No Iterations 3
time step continuity errors : sum local = 5.72563e-06, global = 1.19404e-06, cumulative = 0.0121933
rho min/max : 1.02048 1.17642
DILUPBiCGStab:  Solving for epsilon, Initial residual = 0.000727932, Final residual = 1.74677e-06, No Iterations 1
DILUPBiCGStab:  Solving for k, Initial residual = 0.00132195, Final residual = 2.55086e-06, No Iterations 1
ExecutionTime = 1.735 s  ClockTime = 2 s

Time = 51


Evolving thermalBaffle for region baffle3DRegion
DICPCG:  Solving for h, Initial residual = 0.000346614, Final residual = 2.64004e-07, No Iterations 4
T min/max   = min(T) [0 0 0 1 0 0 0] 314.273, max(T) [0 0 0 1 0 0 0] 426.502
DILUPBiCGStab:  Solving for h, Initial residual = 0.00209408, Final residual = 3.84319e-06, No Iterations 1
GAMG:  Solving for p_rgh, Initial residual = 0.00412563, Final residual = 2.78676e-05, No Iterations 3
time step continuity errors : sum local = 5.54218e-06, global = 1.16876e-06, cumulative = 0.0121945
rho min/max : 1.01969 1.17642
DILUPBiCGStab:  Solving for epsilon, Initial residual = 0.000722627, Final residual = 1.70791e-06, No Iterations 1
DILUPBiCGStab:  Solving for k, Initial residual = 0.00130749, Final residual = 2.48206e-06, No Iterations 1
ExecutionTime = 1.766 s  ClockTime = 2 s

Time = 52


Evolving thermalBaffle for region baffle3DRegion
DICPCG:  Solving for h, Initial residual = 0.00030253, Final residual = 4.20042e-07, No Iterations 3
T min/max   = min(T) [0 0 0 1 0 0 0] 314.299, max(T) [0 0 0 1 0 0 0] 426.592
DILUPBiCGStab:  Solving for h, Initial residual = 0.0020797, Final residual = 3.68413e-06, No Iterations 1
GAMG:  Solving for p_rgh, Initial residual = 0.00407136, Final residual = 2.71425e-05, No Iterations 3
time step continuity errors : sum local = 5.36791e-06, global = 1.11958e-06, cumulative = 0.0121956
rho min/max : 1.019 1.17642
DILUPBiCGStab:  Solving for epsilon, Initial residual = 0.000717561, Final residual = 1.67171e-06, No Iterations 1
DILUPBiCGStab:  Solving for k, Initial residual = 0.00129343, Final residual = 2.41702e-06, No Iterations 1
ExecutionTime = 1.788 s  ClockTime = 2 s

Time = 53


Evolving thermalBaffle for region baffle3DRegion
DICPCG:  Solving for h, Initial residual = 0.000343596, Final residual = 2.62568e-07, No Iterations 4
T min/max   = min(T) [0 0 0 1 0 0 0] 314.324, max(T) [0 0 0 1 0 0 0] 426.874
DILUPBiCGStab:  Solving for h, Initial residual = 0.00206657, Final residual = 4.27475e-06, No Iterations 1
GAMG:  Solving for p_rgh, Initial residual = 0.00422215, Final residual = 2.64565e-05, No Iterations 3
time step continuity errors : sum local = 5.20473e-06, global = 1.09089e-06, cumulative = 0.0121967
rho min/max : 1.01822 1.17642
DILUPBiCGStab:  Solving for epsilon, Initial residual = 0.000712677, Final residual = 1.63771e-06, No Iterations 1
DILUPBiCGStab:  Solving for k, Initial residual = 0.00127996, Final residual = 2.35503e-06, No Iterations 1
ExecutionTime = 1.811 s  ClockTime = 2 s

Time = 54


Evolving thermalBaffle for region baffle3DRegion
DICPCG:  Solving for h, Initial residual = 0.000296215, Final residual = 4.74566e-07, No Iterations 3
T min/max   = min(T) [0 0 0 1 0 0 0] 314.349, max(T) [0 0 0 1 0 0 0] 426.94
DILUPBiCGStab:  Solving for h, Initial residual = 0.00205003, Final residual = 3.64953e-06, No Iterations 1
GAMG:  Solving for p_rgh, Initial residual = 0.00496577, Final residual = 2.22418e-05, No Iterations 3
time step continuity errors : sum local = 4.34876e-06, global = 9.24905e-07, cumulative = 0.0121976
rho min/max : 1.01756 1.17642
DILUPBiCGStab:  Solving for epsilon, Initial residual = 0.000707862, Final residual = 1.60466e-06, No Iterations 1
DILUPBiCGStab:  Solving for k, Initial residual = 0.00126697, Final residual = 2.29469e-06, No Iterations 1
ExecutionTime = 1.84 s  ClockTime = 2 s

Time = 55


Evolving thermalBaffle for region baffle3DRegion
DICPCG:  Solving for h, Initial residual = 0.000335086, Final residual = 2.53634e-07, No Iterations 4
T min/max   = min(T) [0 0 0 1 0 0 0] 314.374, max(T) [0 0 0 1 0 0 0] 427.222
DILUPBiCGStab:  Solving for h, Initial residual = 0.00203433, Final residual = 3.91437e-06, No Iterations 1
GAMG:  Solving for p_rgh, Initial residual = 0.00439434, Final residual = 2.36414e-05, No Iterations 3
time step continuity errors : sum local = 4.59816e-06, global = 9.56906e-07, cumulative = 0.0121986
rho min/max : 1.01681 1.17642
DILUPBiCGStab:  Solving for epsilon, Initial residual = 0.000703244, Final residual = 1.57328e-06, No Iterations 1
DILUPBiCGStab:  Solving for k, Initial residual = 0.00125451, Final residual = 2.23824e-06, No Iterations 1
ExecutionTime = 1.89 s  ClockTime = 2 s

Time = 56


Evolving thermalBaffle for region baffle3DRegion
DICPCG:  Solving for h, Initial residual = 0.000287041, Final residual = 4.87102e-07, No Iterations 3
T min/max   = min(T) [0 0 0 1 0 0 0] 314.398, max(T) [0 0 0 1 0 0 0] 427.288
DILUPBiCGStab:  Solving for h, Initial residual = 0.00201888, Final residual = 3.48355e-06, No Iterations 1
GAMG:  Solving for p_rgh, Initial residual = 0.00416835, Final residual = 2.60982e-05, No Iterations 3
time step continuity errors : sum local = 5.04735e-06, global = 1.03426e-06, cumulative = 0.0121996
rho min/max : 1.01618 1.17642
DILUPBiCGStab:  Solving for epsilon, Initial residual = 0.000698838, Final residual = 1.54353e-06, No Iterations 1
DILUPBiCGStab:  Solving for k, Initial residual = 0.0012423, Final residual = 2.185e-06, No Iterations 1
ExecutionTime = 1.928 s  ClockTime = 2 s

Time = 57


Evolving thermalBaffle for region baffle3DRegion
DICPCG:  Solving for h, Initial residual = 0.000326213, Final residual = 2.47474e-07, No Iterations 4
T min/max   = min(T) [0 0 0 1 0 0 0] 314.422, max(T) [0 0 0 1 0 0 0] 427.562
DILUPBiCGStab:  Solving for h, Initial residual = 0.00200595, Final residual = 3.98967e-06, No Iterations 1
GAMG:  Solving for p_rgh, Initial residual = 0.00402275, Final residual = 2.61567e-05, No Iterations 3
time step continuity errors : sum local = 5.03095e-06, global = 1.0531e-06, cumulative = 0.0122007
rho min/max : 1.01546 1.17642
DILUPBiCGStab:  Solving for epsilon, Initial residual = 0.000694453, Final residual = 1.51348e-06, No Iterations 1
DILUPBiCGStab:  Solving for k, Initial residual = 0.00123062, Final residual = 2.12669e-06, No Iterations 1
ExecutionTime = 1.955 s  ClockTime = 2 s

Time = 58


Evolving thermalBaffle for region baffle3DRegion
DICPCG:  Solving for h, Initial residual = 0.00028007, Final residual = 5.76588e-07, No Iterations 3
T min/max   = min(T) [0 0 0 1 0 0 0] 314.446, max(T) [0 0 0 1 0 0 0] 427.617
DILUPBiCGStab:  Solving for h, Initial residual = 0.00199055, Final residual = 3.40936e-06, No Iterations 1
GAMG:  Solving for p_rgh, Initial residual = 0.00383739, Final residual = 2.58796e-05, No Iterations 3
time step continuity errors : sum local = 4.95061e-06, global = 1.03402e-06, cumulative = 0.0122017
rho min/max : 1.01486 1.17642
DILUPBiCGStab:  Solving for epsilon, Initial residual = 0.000690193, Final residual = 1.48536e-06, No Iterations 1
DILUPBiCGStab:  Solving for k, Initial residual = 0.00121934, Final residual = 2.07746e-06, No Iterations 1
ExecutionTime = 1.987 s  ClockTime = 2 s

Time = 59


Evolving thermalBaffle for region baffle3DRegion
DICPCG:  Solving for h, Initial residual = 0.000319528, Final residual = 2.42365e-07, No Iterations 4
T min/max   = min(T) [0 0 0 1 0 0 0] 314.469, max(T) [0 0 0 1 0 0 0] 427.889
DILUPBiCGStab:  Solving for h, Initial residual = 0.0019777, Final residual = 3.86504e-06, No Iterations 1
GAMG:  Solving for p_rgh, Initial residual = 0.00372141, Final residual = 2.48682e-05, No Iterations 3
time step continuity errors : sum local = 4.73025e-06, global = 1.00102e-06, cumulative = 0.0122027
rho min/max : 1.01416 1.17642
DILUPBiCGStab:  Solving for epsilon, Initial residual = 0.00068612, Final residual = 1.4579e-06, No Iterations 1
DILUPBiCGStab:  Solving for k, Initial residual = 0.00120841, Final residual = 2.03154e-06, No Iterations 1
ExecutionTime = 2.043 s  ClockTime = 2 s

Time = 60


Evolving thermalBaffle for region baffle3DRegion
DICPCG:  Solving for h, Initial residual = 0.00027388, Final residual = 5.94391e-07, No Iterations 3
T min/max   = min(T) [0 0 0 1 0 0 0] 314.493, max(T) [0 0 0 1 0 0 0] 427.94
DILUPBiCGStab:  Solving for h, Initial residual = 0.0019629, Final residual = 3.31328e-06, No Iterations 1
GAMG:  Solving for p_rgh, Initial residual = 0.00372323, Final residual = 2.45338e-05, No Iterations 3
time step continuity errors : sum local = 4.64201e-06, global = 9.70757e-07, cumulative = 0.0122037
rho min/max : 1.01357 1.17642
DILUPBiCGStab:  Solving for epsilon, Initial residual = 0.000682201, Final residual = 1.4319e-06, No Iterations 1
DILUPBiCGStab:  Solving for k, Initial residual = 0.00119784, Final residual = 1.98537e-06, No Iterations 1
ExecutionTime = 2.073 s  ClockTime = 2 s

Time = 61


Evolving thermalBaffle for region baffle3DRegion
DICPCG:  Solving for h, Initial residual = 0.000313102, Final residual = 2.388e-07, No Iterations 4
T min/max   = min(T) [0 0 0 1 0 0 0] 314.516, max(T) [0 0 0 1 0 0 0] 428.21
DILUPBiCGStab:  Solving for h, Initial residual = 0.00195131, Final residual = 3.85816e-06, No Iterations 1
GAMG:  Solving for p_rgh, Initial residual = 0.00362578, Final residual = 2.3648e-05, No Iterations 3
time step continuity errors : sum local = 4.45048e-06, global = 9.41786e-07, cumulative = 0.0122046
rho min/max : 1.01288 1.17642
DILUPBiCGStab:  Solving for epsilon, Initial residual = 0.000678442, Final residual = 1.40788e-06, No Iterations 1
DILUPBiCGStab:  Solving for k, Initial residual = 0.00118741, Final residual = 1.94437e-06, No Iterations 1
ExecutionTime = 2.115 s  ClockTime = 2 s

Time = 62


Evolving thermalBaffle for region baffle3DRegion
DICPCG:  Solving for h, Initial residual = 0.000268256, Final residual = 6.50373e-07, No Iterations 3
T min/max   = min(T) [0 0 0 1 0 0 0] 314.539, max(T) [0 0 0 1 0 0 0] 428.255
DILUPBiCGStab:  Solving for h, Initial residual = 0.00193695, Final residual = 3.25198e-06, No Iterations 1
GAMG:  Solving for p_rgh, Initial residual = 0.00352645, Final residual = 2.34568e-05, No Iterations 3
time step continuity errors : sum local = 4.39195e-06, global = 9.18023e-07, cumulative = 0.0122055
rho min/max : 1.01231 1.17642
DILUPBiCGStab:  Solving for epsilon, Initial residual = 0.000674786, Final residual = 1.38379e-06, No Iterations 1
DILUPBiCGStab:  Solving for k, Initial residual = 0.00117748, Final residual = 1.90274e-06, No Iterations 1
ExecutionTime = 2.151 s  ClockTime = 2 s

Time = 63


Evolving thermalBaffle for region baffle3DRegion
DICPCG:  Solving for h, Initial residual = 0.000307272, Final residual = 2.35298e-07, No Iterations 4
T min/max   = min(T) [0 0 0 1 0 0 0] 314.562, max(T) [0 0 0 1 0 0 0] 428.523
DILUPBiCGStab:  Solving for h, Initial residual = 0.00192581, Final residual = 3.8012e-06, No Iterations 1
GAMG:  Solving for p_rgh, Initial residual = 0.00341933, Final residual = 2.28084e-05, No Iterations 3
time step continuity errors : sum local = 4.2486e-06, global = 9.00839e-07, cumulative = 0.0122064
rho min/max : 1.01164 1.17642
DILUPBiCGStab:  Solving for epsilon, Initial residual = 0.000671098, Final residual = 1.36081e-06, No Iterations 1
DILUPBiCGStab:  Solving for k, Initial residual = 0.00116773, Final residual = 1.86649e-06, No Iterations 1
ExecutionTime = 2.171 s  ClockTime = 2 s

Time = 64


Evolving thermalBaffle for region baffle3DRegion
DICPCG:  Solving for h, Initial residual = 0.000262642, Final residual = 6.96053e-07, No Iterations 3
T min/max   = min(T) [0 0 0 1 0 0 0] 314.585, max(T) [0 0 0 1 0 0 0] 428.564
DILUPBiCGStab:  Solving for h, Initial residual = 0.00191198, Final residual = 3.19312e-06, No Iterations 1
GAMG:  Solving for p_rgh, Initial residual = 0.00364177, Final residual = 2.29412e-05, No Iterations 3
time step continuity errors : sum local = 4.25436e-06, global = 8.90369e-07, cumulative = 0.0122073
rho min/max : 1.01108 1.17642
DILUPBiCGStab:  Solving for epsilon, Initial residual = 0.000667735, Final residual = 1.33841e-06, No Iterations 1
DILUPBiCGStab:  Solving for k, Initial residual = 0.00115853, Final residual = 1.8291e-06, No Iterations 1
ExecutionTime = 2.194 s  ClockTime = 2 s

Time = 65


Evolving thermalBaffle for region baffle3DRegion
DICPCG:  Solving for h, Initial residual = 0.00030134, Final residual = 2.31959e-07, No Iterations 4
T min/max   = min(T) [0 0 0 1 0 0 0] 314.607, max(T) [0 0 0 1 0 0 0] 428.83
DILUPBiCGStab:  Solving for h, Initial residual = 0.00190156, Final residual = 3.78249e-06, No Iterations 1
GAMG:  Solving for p_rgh, Initial residual = 0.00357732, Final residual = 2.2584e-05, No Iterations 3
time step continuity errors : sum local = 4.16734e-06, global = 8.86523e-07, cumulative = 0.0122082
rho min/max : 1.01042 1.17642
DILUPBiCGStab:  Solving for epsilon, Initial residual = 0.000664424, Final residual = 1.31778e-06, No Iterations 1
DILUPBiCGStab:  Solving for k, Initial residual = 0.00114954, Final residual = 1.7941e-06, No Iterations 1
ExecutionTime = 2.223 s  ClockTime = 2 s

Time = 66


Evolving thermalBaffle for region baffle3DRegion
DICPCG:  Solving for h, Initial residual = 0.000256993, Final residual = 7.29933e-07, No Iterations 3
T min/max   = min(T) [0 0 0 1 0 0 0] 314.629, max(T) [0 0 0 1 0 0 0] 428.867
DILUPBiCGStab:  Solving for h, Initial residual = 0.0018882, Final residual = 3.15105e-06, No Iterations 1
GAMG:  Solving for p_rgh, Initial residual = 0.00354568, Final residual = 2.28081e-05, No Iterations 3
time step continuity errors : sum local = 4.18857e-06, global = 8.81719e-07, cumulative = 0.0122091
rho min/max : 1.00988 1.17642
DILUPBiCGStab:  Solving for epsilon, Initial residual = 0.000661022, Final residual = 1.29785e-06, No Iterations 1
DILUPBiCGStab:  Solving for k, Initial residual = 0.00114066, Final residual = 1.76105e-06, No Iterations 1
ExecutionTime = 2.248 s  ClockTime = 2 s

Time = 67


Evolving thermalBaffle for region baffle3DRegion
DICPCG:  Solving for h, Initial residual = 0.000295508, Final residual = 2.29262e-07, No Iterations 4
T min/max   = min(T) [0 0 0 1 0 0 0] 314.651, max(T) [0 0 0 1 0 0 0] 429.131
DILUPBiCGStab:  Solving for h, Initial residual = 0.00187829, Final residual = 3.75494e-06, No Iterations 1
GAMG:  Solving for p_rgh, Initial residual = 0.00342026, Final residual = 2.20273e-05, No Iterations 3
time step continuity errors : sum local = 4.02659e-06, global = 8.59481e-07, cumulative = 0.0122099
rho min/max : 1.00923 1.17642
DILUPBiCGStab:  Solving for epsilon, Initial residual = 0.00065782, Final residual = 1.27782e-06, No Iterations 1
DILUPBiCGStab:  Solving for k, Initial residual = 0.00113227, Final residual = 1.72896e-06, No Iterations 1
ExecutionTime = 2.269 s  ClockTime = 2 s

Time = 68


Evolving thermalBaffle for region baffle3DRegion
DICPCG:  Solving for h, Initial residual = 0.000251728, Final residual = 7.58369e-07, No Iterations 3
T min/max   = min(T) [0 0 0 1 0 0 0] 314.673, max(T) [0 0 0 1 0 0 0] 429.164
DILUPBiCGStab:  Solving for h, Initial residual = 0.00186535, Final residual = 3.11507e-06, No Iterations 1
GAMG:  Solving for p_rgh, Initial residual = 0.00354189, Final residual = 2.19509e-05, No Iterations 3
time step continuity errors : sum local = 3.99438e-06, global = 8.42277e-07, cumulative = 0.0122108
rho min/max : 1.0087 1.17642
DILUPBiCGStab:  Solving for epsilon, Initial residual = 0.00065468, Final residual = 1.25922e-06, No Iterations 1
DILUPBiCGStab:  Solving for k, Initial residual = 0.00112401, Final residual = 1.69606e-06, No Iterations 1
ExecutionTime = 2.293 s  ClockTime = 2 s

Time = 69


Evolving thermalBaffle for region baffle3DRegion
DICPCG:  Solving for h, Initial residual = 0.000290407, Final residual = 2.26831e-07, No Iterations 4
T min/max   = min(T) [0 0 0 1 0 0 0] 314.694, max(T) [0 0 0 1 0 0 0] 429.427
DILUPBiCGStab:  Solving for h, Initial residual = 0.00185596, Final residual = 3.74425e-06, No Iterations 1
GAMG:  Solving for p_rgh, Initial residual = 0.00343659, Final residual = 2.1205e-05, No Iterations 3
time step continuity errors : sum local = 3.84128e-06, global = 8.21991e-07, cumulative = 0.0122116
rho min/max : 1.00806 1.17642
DILUPBiCGStab:  Solving for epsilon, Initial residual = 0.000651617, Final residual = 1.24116e-06, No Iterations 1
DILUPBiCGStab:  Solving for k, Initial residual = 0.00111602, Final residual = 1.66686e-06, No Iterations 1
ExecutionTime = 2.316 s  ClockTime = 2 s

Time = 70


Evolving thermalBaffle for region baffle3DRegion
DICPCG:  Solving for h, Initial residual = 0.000247161, Final residual = 7.91495e-07, No Iterations 3
T min/max   = min(T) [0 0 0 1 0 0 0] 314.715, max(T) [0 0 0 1 0 0 0] 429.457
DILUPBiCGStab:  Solving for h, Initial residual = 0.00184347, Final residual = 3.08785e-06, No Iterations 1
GAMG:  Solving for p_rgh, Initial residual = 0.00337526, Final residual = 2.14403e-05, No Iterations 3
time step continuity errors : sum local = 3.86711e-06, global = 8.12452e-07, cumulative = 0.0122124
rho min/max : 1.00754 1.17642
DILUPBiCGStab:  Solving for epsilon, Initial residual = 0.000648495, Final residual = 1.22326e-06, No Iterations 1
DILUPBiCGStab:  Solving for k, Initial residual = 0.00110821, Final residual = 1.63735e-06, No Iterations 1
ExecutionTime = 2.335 s  ClockTime = 2 s

Time = 71


Evolving thermalBaffle for region baffle3DRegion
DICPCG:  Solving for h, Initial residual = 0.000285708, Final residual = 2.24683e-07, No Iterations 4
T min/max   = min(T) [0 0 0 1 0 0 0] 314.735, max(T) [0 0 0 1 0 0 0] 429.719
DILUPBiCGStab:  Solving for h, Initial residual = 0.00183453, Final residual = 3.73656e-06, No Iterations 1
GAMG:  Solving for p_rgh, Initial residual = 0.00326622, Final residual = 2.06171e-05, No Iterations 3
time step continuity errors : sum local = 3.70239e-06, global = 7.91711e-07, cumulative = 0.0122132
rho min/max : 1.0069 1.17642
DILUPBiCGStab:  Solving for epsilon, Initial residual = 0.000645639, Final residual = 1.2061e-06, No Iterations 1
DILUPBiCGStab:  Solving for k, Initial residual = 0.00110081, Final residual = 1.61115e-06, No Iterations 1
ExecutionTime = 2.355 s  ClockTime = 2 s

Time = 72


Evolving thermalBaffle for region baffle3DRegion
DICPCG:  Solving for h, Initial residual = 0.000242569, Final residual = 8.2615e-07, No Iterations 3
T min/max   = min(T) [0 0 0 1 0 0 0] 314.755, max(T) [0 0 0 1 0 0 0] 429.746
DILUPBiCGStab:  Solving for h, Initial residual = 0.00182246, Final residual = 3.06564e-06, No Iterations 1
GAMG:  Solving for p_rgh, Initial residual = 0.00324034, Final residual = 2.04953e-05, No Iterations 3
time step continuity errors : sum local = 3.66524e-06, global = 7.72383e-07, cumulative = 0.012214
rho min/max : 1.00639 1.17642
DILUPBiCGStab:  Solving for epsilon, Initial residual = 0.000642633, Final residual = 1.18963e-06, No Iterations 1
DILUPBiCGStab:  Solving for k, Initial residual = 0.00109344, Final residual = 1.58481e-06, No Iterations 1
ExecutionTime = 2.377 s  ClockTime = 2 s

Time = 73


Evolving thermalBaffle for region baffle3DRegion
DICPCG:  Solving for h, Initial residual = 0.000280812, Final residual = 2.21737e-07, No Iterations 4
T min/max   = min(T) [0 0 0 1 0 0 0] 314.775, max(T) [0 0 0 1 0 0 0] 430.007
DILUPBiCGStab:  Solving for h, Initial residual = 0.00181388, Final residual = 3.73492e-06, No Iterations 1
GAMG:  Solving for p_rgh, Initial residual = 0.00330344, Final residual = 1.98053e-05, No Iterations 3
time step continuity errors : sum local = 3.52611e-06, global = 7.54169e-07, cumulative = 0.0122147
rho min/max : 1.00577 1.17642
DILUPBiCGStab:  Solving for epsilon, Initial residual = 0.000639966, Final residual = 1.17403e-06, No Iterations 1
DILUPBiCGStab:  Solving for k, Initial residual = 0.00108648, Final residual = 1.55839e-06, No Iterations 1
ExecutionTime = 2.418 s  ClockTime = 2 s

Time = 74


Evolving thermalBaffle for region baffle3DRegion
DICPCG:  Solving for h, Initial residual = 0.000237912, Final residual = 8.82343e-07, No Iterations 3
T min/max   = min(T) [0 0 0 1 0 0 0] 314.795, max(T) [0 0 0 1 0 0 0] 430.029
DILUPBiCGStab:  Solving for h, Initial residual = 0.00180218, Final residual = 3.04555e-06, No Iterations 1
GAMG:  Solving for p_rgh, Initial residual = 0.00338168, Final residual = 2.01441e-05, No Iterations 3
time step continuity errors : sum local = 3.57137e-06, global = 7.50144e-07, cumulative = 0.0122155
rho min/max : 1.00527 1.17642
DILUPBiCGStab:  Solving for epsilon, Initial residual = 0.00063714, Final residual = 1.15911e-06, No Iterations 1
DILUPBiCGStab:  Solving for k, Initial residual = 0.00107957, Final residual = 1.53499e-06, No Iterations 1
ExecutionTime = 2.491 s  ClockTime = 2 s

Time = 75


Evolving thermalBaffle for region baffle3DRegion
DICPCG:  Solving for h, Initial residual = 0.000276089, Final residual = 2.17986e-07, No Iterations 4
T min/max   = min(T) [0 0 0 1 0 0 0] 314.814, max(T) [0 0 0 1 0 0 0] 430.288
DILUPBiCGStab:  Solving for h, Initial residual = 0.0017941, Final residual = 3.73958e-06, No Iterations 1
GAMG:  Solving for p_rgh, Initial residual = 0.00328589, Final residual = 1.94857e-05, No Iterations 3
time step continuity errors : sum local = 3.43928e-06, global = 7.37316e-07, cumulative = 0.0122162
rho min/max : 1.00467 1.17642
DILUPBiCGStab:  Solving for epsilon, Initial residual = 0.000634503, Final residual = 1.14366e-06, No Iterations 1
DILUPBiCGStab:  Solving for k, Initial residual = 0.00107291, Final residual = 1.51087e-06, No Iterations 1
ExecutionTime = 2.531 s  ClockTime = 3 s

Time = 76


Evolving thermalBaffle for region baffle3DRegion
DICPCG:  Solving for h, Initial residual = 0.000234202, Final residual = 9.18309e-07, No Iterations 3
T min/max   = min(T) [0 0 0 1 0 0 0] 314.833, max(T) [0 0 0 1 0 0 0] 430.307
DILUPBiCGStab:  Solving for h, Initial residual = 0.00178291, Final residual = 3.03618e-06, No Iterations 1
GAMG:  Solving for p_rgh, Initial residual = 0.00310353, Final residual = 1.95064e-05, No Iterations 3
time step continuity errors : sum local = 3.42884e-06, global = 7.23503e-07, cumulative = 0.0122169
rho min/max : 1.00418 1.17642
DILUPBiCGStab:  Solving for epsilon, Initial residual = 0.000631864, Final residual = 1.12909e-06, No Iterations 1
DILUPBiCGStab:  Solving for k, Initial residual = 0.00106645, Final residual = 1.488e-06, No Iterations 1
ExecutionTime = 2.558 s  ClockTime = 3 s

Time = 77


Evolving thermalBaffle for region baffle3DRegion
DICPCG:  Solving for h, Initial residual = 0.000272271, Final residual = 2.15957e-07, No Iterations 4
T min/max   = min(T) [0 0 0 1 0 0 0] 314.852, max(T) [0 0 0 1 0 0 0] 430.565
DILUPBiCGStab:  Solving for h, Initial residual = 0.00177531, Final residual = 3.75152e-06, No Iterations 1
GAMG:  Solving for p_rgh, Initial residual = 0.0030656, Final residual = 1.89048e-05, No Iterations 3
time step continuity errors : sum local = 3.30902e-06, global = 7.11692e-07, cumulative = 0.0122177
rho min/max : 1.00358 1.17642
DILUPBiCGStab:  Solving for epsilon, Initial residual = 0.000629287, Final residual = 1.1154e-06, No Iterations 1
DILUPBiCGStab:  Solving for k, Initial residual = 0.00106031, Final residual = 1.46613e-06, No Iterations 1
ExecutionTime = 2.591 s  ClockTime = 3 s

Time = 78


Evolving thermalBaffle for region baffle3DRegion
DICPCG:  Solving for h, Initial residual = 0.000231123, Final residual = 9.44747e-07, No Iterations 3
T min/max   = min(T) [0 0 0 1 0 0 0] 314.87, max(T) [0 0 0 1 0 0 0] 430.582
DILUPBiCGStab:  Solving for h, Initial residual = 0.00176447, Final residual = 3.03217e-06, No Iterations 1
GAMG:  Solving for p_rgh, Initial residual = 0.00298948, Final residual = 1.9045e-05, No Iterations 3
time step continuity errors : sum local = 3.32041e-06, global = 7.00987e-07, cumulative = 0.0122184
rho min/max : 1.0031 1.17642
DILUPBiCGStab:  Solving for epsilon, Initial residual = 0.000626683, Final residual = 1.10154e-06, No Iterations 1
DILUPBiCGStab:  Solving for k, Initial residual = 0.00105428, Final residual = 1.44377e-06, No Iterations 1
ExecutionTime = 2.631 s  ClockTime = 3 s

Time = 79


Evolving thermalBaffle for region baffle3DRegion
DICPCG:  Solving for h, Initial residual = 0.000268888, Final residual = 2.14647e-07, No Iterations 4
T min/max   = min(T) [0 0 0 1 0 0 0] 314.888, max(T) [0 0 0 1 0 0 0] 430.84
DILUPBiCGStab:  Solving for h, Initial residual = 0.00175738, Final residual = 3.76926e-06, No Iterations 1
GAMG:  Solving for p_rgh, Initial residual = 0.00300687, Final residual = 1.85415e-05, No Iterations 3
time step continuity errors : sum local = 3.21925e-06, global = 6.92213e-07, cumulative = 0.0122191
rho min/max : 1.00251 1.17642
DILUPBiCGStab:  Solving for epsilon, Initial residual = 0.000624106, Final residual = 1.08774e-06, No Iterations 1
DILUPBiCGStab:  Solving for k, Initial residual = 0.00104851, Final residual = 1.424e-06, No Iterations 1
ExecutionTime = 2.649 s  ClockTime = 3 s

Time = 80


Evolving thermalBaffle for region baffle3DRegion
DICPCG:  Solving for h, Initial residual = 0.000228352, Final residual = 9.7141e-07, No Iterations 3
T min/max   = min(T) [0 0 0 1 0 0 0] 314.906, max(T) [0 0 0 1 0 0 0] 430.854
DILUPBiCGStab:  Solving for h, Initial residual = 0.00174683, Final residual = 3.03149e-06, No Iterations 1
GAMG:  Solving for p_rgh, Initial residual = 0.00317043, Final residual = 1.79461e-05, No Iterations 3
time step continuity errors : sum local = 3.10227e-06, global = 6.57416e-07, cumulative = 0.0122197
rho min/max : 1.00204 1.17642
DILUPBiCGStab:  Solving for epsilon, Initial residual = 0.000621562, Final residual = 1.07419e-06, No Iterations 1
DILUPBiCGStab:  Solving for k, Initial residual = 0.00104292, Final residual = 1.40486e-06, No Iterations 1
ExecutionTime = 2.67 s  ClockTime = 3 s

Time = 81


Evolving thermalBaffle for region baffle3DRegion
DICPCG:  Solving for h, Initial residual = 0.000265688, Final residual = 2.13866e-07, No Iterations 4
T min/max   = min(T) [0 0 0 1 0 0 0] 314.924, max(T) [0 0 0 1 0 0 0] 431.113
DILUPBiCGStab:  Solving for h, Initial residual = 0.0017402, Final residual = 3.79037e-06, No Iterations 1
GAMG:  Solving for p_rgh, Initial residual = 0.00376092, Final residual = 1.73795e-05, No Iterations 3
time step continuity errors : sum local = 2.99525e-06, global = 6.48963e-07, cumulative = 0.0122204
rho min/max : 1.00144 1.17642
DILUPBiCGStab:  Solving for epsilon, Initial residual = 0.000618937, Final residual = 1.06067e-06, No Iterations 1
DILUPBiCGStab:  Solving for k, Initial residual = 0.00103742, Final residual = 1.38518e-06, No Iterations 1
ExecutionTime = 2.691 s  ClockTime = 3 s

Time = 82


Evolving thermalBaffle for region baffle3DRegion
DICPCG:  Solving for h, Initial residual = 0.000225777, Final residual = 8.77828e-08, No Iterations 4
T min/max   = min(T) [0 0 0 1 0 0 0] 314.942, max(T) [0 0 0 1 0 0 0] 431.125
DILUPBiCGStab:  Solving for h, Initial residual = 0.00172996, Final residual = 3.03548e-06, No Iterations 1
GAMG:  Solving for p_rgh, Initial residual = 0.00338506, Final residual = 1.7842e-05, No Iterations 3
time step continuity errors : sum local = 3.06352e-06, global = 6.49808e-07, cumulative = 0.012221
rho min/max : 1.00098 1.17642
DILUPBiCGStab:  Solving for epsilon, Initial residual = 0.000616699, Final residual = 1.04784e-06, No Iterations 1
DILUPBiCGStab:  Solving for k, Initial residual = 0.00103231, Final residual = 1.36683e-06, No Iterations 1
ExecutionTime = 2.714 s  ClockTime = 3 s

Time = 83


Evolving thermalBaffle for region baffle3DRegion
DICPCG:  Solving for h, Initial residual = 0.000261679, Final residual = 2.13142e-07, No Iterations 4
T min/max   = min(T) [0 0 0 1 0 0 0] 314.959, max(T) [0 0 0 1 0 0 0] 431.382
DILUPBiCGStab:  Solving for h, Initial residual = 0.00172367, Final residual = 3.8221e-06, No Iterations 1
GAMG:  Solving for p_rgh, Initial residual = 0.00323598, Final residual = 1.75927e-05, No Iterations 3
time step continuity errors : sum local = 3.00918e-06, global = 6.51126e-07, cumulative = 0.0122217
rho min/max : 1.0004 1.17642
DILUPBiCGStab:  Solving for epsilon, Initial residual = 0.000614416, Final residual = 1.03671e-06, No Iterations 1
DILUPBiCGStab:  Solving for k, Initial residual = 0.00102738, Final residual = 1.34859e-06, No Iterations 1
ExecutionTime = 2.737 s  ClockTime = 3 s

Time = 84


Evolving thermalBaffle for region baffle3DRegion
DICPCG:  Solving for h, Initial residual = 0.000223301, Final residual = 8.94432e-08, No Iterations 4
T min/max   = min(T) [0 0 0 1 0 0 0] 314.976, max(T) [0 0 0 1 0 0 0] 431.391
DILUPBiCGStab:  Solving for h, Initial residual = 0.0017136, Final residual = 3.0463e-06, No Iterations 1
GAMG:  Solving for p_rgh, Initial residual = 0.00306082, Final residual = 1.80283e-05, No Iterations 3
time step continuity errors : sum local = 3.07251e-06, global = 6.50709e-07, cumulative = 0.0122223
rho min/max : 0.999943 1.17642
DILUPBiCGStab:  Solving for epsilon, Initial residual = 0.000612081, Final residual = 1.02589e-06, No Iterations 1
DILUPBiCGStab:  Solving for k, Initial residual = 0.00102254, Final residual = 1.33099e-06, No Iterations 1
ExecutionTime = 2.773 s  ClockTime = 3 s

Time = 85


Evolving thermalBaffle for region baffle3DRegion
DICPCG:  Solving for h, Initial residual = 0.000259029, Final residual = 2.13063e-07, No Iterations 4
T min/max   = min(T) [0 0 0 1 0 0 0] 314.993, max(T) [0 0 0 1 0 0 0] 431.648
DILUPBiCGStab:  Solving for h, Initial residual = 0.00170764, Final residual = 3.84476e-06, No Iterations 1
GAMG:  Solving for p_rgh, Initial residual = 0.00300559, Final residual = 1.7549e-05, No Iterations 3
time step continuity errors : sum local = 2.97935e-06, global = 6.4523e-07, cumulative = 0.012223
rho min/max : 0.999367 1.17642
DILUPBiCGStab:  Solving for epsilon, Initial residual = 0.000609736, Final residual = 1.01437e-06, No Iterations 1
DILUPBiCGStab:  Solving for k, Initial residual = 0.00101794, Final residual = 1.31261e-06, No Iterations 1
ExecutionTime = 2.797 s  ClockTime = 3 s

Time = 86


Evolving thermalBaffle for region baffle3DRegion
DICPCG:  Solving for h, Initial residual = 0.000221253, Final residual = 9.10406e-08, No Iterations 4
T min/max   = min(T) [0 0 0 1 0 0 0] 315.01, max(T) [0 0 0 1 0 0 0] 431.655
DILUPBiCGStab:  Solving for h, Initial residual = 0.00169771, Final residual = 3.05616e-06, No Iterations 1
GAMG:  Solving for p_rgh, Initial residual = 0.00296445, Final residual = 1.77497e-05, No Iterations 3
time step continuity errors : sum local = 3.00258e-06, global = 6.36147e-07, cumulative = 0.0122236
rho min/max : 0.998919 1.17642
DILUPBiCGStab:  Solving for epsilon, Initial residual = 0.000607423, Final residual = 1.00266e-06, No Iterations 1
DILUPBiCGStab:  Solving for k, Initial residual = 0.0010135, Final residual = 1.29555e-06, No Iterations 1
ExecutionTime = 2.822 s  ClockTime = 3 s

Time = 87


Evolving thermalBaffle for region baffle3DRegion
DICPCG:  Solving for h, Initial residual = 0.000256569, Final residual = 2.13184e-07, No Iterations 4
T min/max   = min(T) [0 0 0 1 0 0 0] 315.026, max(T) [0 0 0 1 0 0 0] 431.912
DILUPBiCGStab:  Solving for h, Initial residual = 0.00169211, Final residual = 3.87554e-06, No Iterations 1
GAMG:  Solving for p_rgh, Initial residual = 0.00350941, Final residual = 1.72628e-05, No Iterations 3
time step continuity errors : sum local = 2.90734e-06, global = 6.2941e-07, cumulative = 0.0122242
rho min/max : 0.998347 1.17642
DILUPBiCGStab:  Solving for epsilon, Initial residual = 0.000605122, Final residual = 9.91368e-07, No Iterations 1
DILUPBiCGStab:  Solving for k, Initial residual = 0.00100918, Final residual = 1.279e-06, No Iterations 1
ExecutionTime = 2.855 s  ClockTime = 3 s

Time = 88


Evolving thermalBaffle for region baffle3DRegion
DICPCG:  Solving for h, Initial residual = 0.000219426, Final residual = 9.28041e-08, No Iterations 4
T min/max   = min(T) [0 0 0 1 0 0 0] 315.043, max(T) [0 0 0 1 0 0 0] 431.918
DILUPBiCGStab:  Solving for h, Initial residual = 0.00168232, Final residual = 3.06655e-06, No Iterations 1
GAMG:  Solving for p_rgh, Initial residual = 0.00342937, Final residual = 1.73136e-05, No Iterations 3
time step continuity errors : sum local = 2.90619e-06, global = 6.13427e-07, cumulative = 0.0122248
rho min/max : 0.997902 1.17642
DILUPBiCGStab:  Solving for epsilon, Initial residual = 0.000602786, Final residual = 9.8004e-07, No Iterations 1
DILUPBiCGStab:  Solving for k, Initial residual = 0.001005, Final residual = 1.2631e-06, No Iterations 1
ExecutionTime = 2.879 s  ClockTime = 3 s

Time = 89


Evolving thermalBaffle for region baffle3DRegion
DICPCG:  Solving for h, Initial residual = 0.000254233, Final residual = 2.13271e-07, No Iterations 4
T min/max   = min(T) [0 0 0 1 0 0 0] 315.059, max(T) [0 0 0 1 0 0 0] 432.175
DILUPBiCGStab:  Solving for h, Initial residual = 0.00167702, Final residual = 3.9003e-06, No Iterations 1
GAMG:  Solving for p_rgh, Initial residual = 0.00311596, Final residual = 1.67529e-05, No Iterations 3
time step continuity errors : sum local = 2.80182e-06, global = 6.05079e-07, cumulative = 0.0122254
rho min/max : 0.997332 1.17642
DILUPBiCGStab:  Solving for epsilon, Initial residual = 0.00060052, Final residual = 9.68531e-07, No Iterations 1
DILUPBiCGStab:  Solving for k, Initial residual = 0.00100117, Final residual = 1.24727e-06, No Iterations 1
ExecutionTime = 2.909 s  ClockTime = 3 s

Time = 90


Evolving thermalBaffle for region baffle3DRegion
DICPCG:  Solving for h, Initial residual = 0.00021763, Final residual = 9.4396e-08, No Iterations 4
T min/max   = min(T) [0 0 0 1 0 0 0] 315.075, max(T) [0 0 0 1 0 0 0] 432.179
DILUPBiCGStab:  Solving for h, Initial residual = 0.00166731, Final residual = 3.07682e-06, No Iterations 1
GAMG:  Solving for p_rgh, Initial residual = 0.00296532, Final residual = 1.6976e-05, No Iterations 3
time step continuity errors : sum local = 2.82927e-06, global = 5.92935e-07, cumulative = 0.012226
rho min/max : 0.99689 1.17642
DILUPBiCGStab:  Solving for epsilon, Initial residual = 0.000598431, Final residual = 9.57658e-07, No Iterations 1
DILUPBiCGStab:  Solving for k, Initial residual = 0.000997676, Final residual = 1.23173e-06, No Iterations 1
ExecutionTime = 2.932 s  ClockTime = 3 s

Time = 91


Evolving thermalBaffle for region baffle3DRegion
DICPCG:  Solving for h, Initial residual = 0.000251897, Final residual = 2.13287e-07, No Iterations 4
T min/max   = min(T) [0 0 0 1 0 0 0] 315.091, max(T) [0 0 0 1 0 0 0] 432.437
DILUPBiCGStab:  Solving for h, Initial residual = 0.00166236, Final residual = 3.92658e-06, No Iterations 1
GAMG:  Solving for p_rgh, Initial residual = 0.00303343, Final residual = 1.65467e-05, No Iterations 3
time step continuity errors : sum local = 2.74915e-06, global = 5.94063e-07, cumulative = 0.0122266
rho min/max : 0.996321 1.17642
DILUPBiCGStab:  Solving for epsilon, Initial residual = 0.0005963, Final residual = 9.47864e-07, No Iterations 1
DILUPBiCGStab:  Solving for k, Initial residual = 0.000994276, Final residual = 1.21768e-06, No Iterations 1
ExecutionTime = 2.966 s  ClockTime = 3 s

Time = 92


Evolving thermalBaffle for region baffle3DRegion
DICPCG:  Solving for h, Initial residual = 0.000215848, Final residual = 9.60578e-08, No Iterations 4
T min/max   = min(T) [0 0 0 1 0 0 0] 315.107, max(T) [0 0 0 1 0 0 0] 432.439
DILUPBiCGStab:  Solving for h, Initial residual = 0.00165279, Final residual = 3.0877e-06, No Iterations 1
GAMG:  Solving for p_rgh, Initial residual = 0.00314598, Final residual = 1.69084e-05, No Iterations 3
[...]
time step continuity errors : sum local = 3.96115e-06, global = 6.73293e-08, cumulative = 0.0123554
rho min/max : 0.943356 1.17641
DILUPBiCGStab:  Solving for epsilon, Initial residual = 4.21505e-06, Final residual = 7.72099e-09, No Iterations 1
DILUPBiCGStab:  Solving for k, Initial residual = 5.02054e-06, Final residual = 5.464e-09, No Iterations 1
ExecutionTime = 41.903 s  ClockTime = 42 s

Time = 2478


Evolving thermalBaffle for region baffle3DRegion
DICPCG:  Solving for h, Initial residual = 8.9489e-05, Final residual = 5.24762e-07, No Iterations 3
T min/max   = min(T) [0 0 0 1 0 0 0] 334.428, max(T) [0 0 0 1 0 0 0] 457.961
DILUPBiCGStab:  Solving for h, Initial residual = 4.50333e-05, Final residual = 3.12155e-07, No Iterations 1
GAMG:  Solving for p_rgh, Initial residual = 0.0042383, Final residual = 2.05229e-05, No Iterations 2
time step continuity errors : sum local = 3.49141e-06, global = 3.13864e-07, cumulative = 0.0123557
rho min/max : 0.943068 1.17641
DILUPBiCGStab:  Solving for epsilon, Initial residual = 4.19373e-06, Final residual = 7.25847e-09, No Iterations 1
DILUPBiCGStab:  Solving for k, Initial residual = 5.00194e-06, Final residual = 5.2607e-09, No Iterations 1
ExecutionTime = 41.915 s  ClockTime = 42 s

Time = 2479


Evolving thermalBaffle for region baffle3DRegion
DICPCG:  Solving for h, Initial residual = 7.47278e-05, Final residual = 8.67213e-07, No Iterations 3
T min/max   = min(T) [0 0 0 1 0 0 0] 334.429, max(T) [0 0 0 1 0 0 0] 457.891
DILUPBiCGStab:  Solving for h, Initial residual = 6.4571e-05, Final residual = 3.46682e-07, No Iterations 1
GAMG:  Solving for p_rgh, Initial residual = 0.00411245, Final residual = 2.13397e-05, No Iterations 2
time step continuity errors : sum local = 3.6166e-06, global = -1.49971e-07, cumulative = 0.0123555
rho min/max : 0.943378 1.17641
DILUPBiCGStab:  Solving for epsilon, Initial residual = 4.22621e-06, Final residual = 9.9124e-09, No Iterations 1
DILUPBiCGStab:  Solving for k, Initial residual = 5.0198e-06, Final residual = 6.28657e-09, No Iterations 1
ExecutionTime = 41.927 s  ClockTime = 42 s

Time = 2480


Evolving thermalBaffle for region baffle3DRegion
DICPCG:  Solving for h, Initial residual = 7.53548e-05, Final residual = 7.7844e-07, No Iterations 3
T min/max   = min(T) [0 0 0 1 0 0 0] 334.429, max(T) [0 0 0 1 0 0 0] 457.953
DILUPBiCGStab:  Solving for h, Initial residual = 5.37871e-05, Final residual = 3.40433e-07, No Iterations 1
GAMG:  Solving for p_rgh, Initial residual = 0.00439182, Final residual = 2.37951e-05, No Iterations 2
time step continuity errors : sum local = 4.05043e-06, global = -2.84721e-07, cumulative = 0.0123553
rho min/max : 0.943072 1.17641
DILUPBiCGStab:  Solving for epsilon, Initial residual = 4.22699e-06, Final residual = 8.9417e-09, No Iterations 1
DILUPBiCGStab:  Solving for k, Initial residual = 5.00514e-06, Final residual = 5.95443e-09, No Iterations 1
ExecutionTime = 41.941 s  ClockTime = 42 s

Time = 2481


Evolving thermalBaffle for region baffle3DRegion
DICPCG:  Solving for h, Initial residual = 9.16191e-05, Final residual = 7.72014e-07, No Iterations 3
T min/max   = min(T) [0 0 0 1 0 0 0] 334.43, max(T) [0 0 0 1 0 0 0] 457.928
DILUPBiCGStab:  Solving for h, Initial residual = 7.67078e-05, Final residual = 3.24123e-07, No Iterations 1
GAMG:  Solving for p_rgh, Initial residual = 0.00448305, Final residual = 2.23994e-05, No Iterations 2
time step continuity errors : sum local = 3.79441e-06, global = -2.5822e-07, cumulative = 0.012355
rho min/max : 0.943357 1.17641
DILUPBiCGStab:  Solving for epsilon, Initial residual = 4.19209e-06, Final residual = 9.10875e-09, No Iterations 1
DILUPBiCGStab:  Solving for k, Initial residual = 4.96923e-06, Final residual = 5.94504e-09, No Iterations 1
ExecutionTime = 41.954 s  ClockTime = 42 s

Time = 2482


Evolving thermalBaffle for region baffle3DRegion
DICPCG:  Solving for h, Initial residual = 8.9476e-05, Final residual = 5.22872e-07, No Iterations 3
T min/max   = min(T) [0 0 0 1 0 0 0] 334.43, max(T) [0 0 0 1 0 0 0] 457.96
DILUPBiCGStab:  Solving for h, Initial residual = 4.81951e-05, Final residual = 3.17065e-07, No Iterations 1
GAMG:  Solving for p_rgh, Initial residual = 0.00434488, Final residual = 2.13574e-05, No Iterations 2
time step continuity errors : sum local = 3.63451e-06, global = 4.44025e-08, cumulative = 0.012355
rho min/max : 0.943069 1.17641
DILUPBiCGStab:  Solving for epsilon, Initial residual = 4.15408e-06, Final residual = 7.67928e-09, No Iterations 1
DILUPBiCGStab:  Solving for k, Initial residual = 4.93314e-06, Final residual = 5.394e-09, No Iterations 1
ExecutionTime = 41.967 s  ClockTime = 42 s

Time = 2483


Evolving thermalBaffle for region baffle3DRegion
DICPCG:  Solving for h, Initial residual = 7.46669e-05, Final residual = 8.67163e-07, No Iterations 3
T min/max   = min(T) [0 0 0 1 0 0 0] 334.431, max(T) [0 0 0 1 0 0 0] 457.889
DILUPBiCGStab:  Solving for h, Initial residual = 4.71417e-05, Final residual = 2.97271e-07, No Iterations 1
GAMG:  Solving for p_rgh, Initial residual = 0.00390251, Final residual = 2.21152e-05, No Iterations 2
time step continuity errors : sum local = 3.74669e-06, global = 2.78891e-07, cumulative = 0.0123553
rho min/max : 0.943379 1.17641
DILUPBiCGStab:  Solving for epsilon, Initial residual = 4.11234e-06, Final residual = 7.16707e-09, No Iterations 1
DILUPBiCGStab:  Solving for k, Initial residual = 4.90984e-06, Final residual = 5.17015e-09, No Iterations 1
ExecutionTime = 41.981 s  ClockTime = 42 s

Time = 2484


Evolving thermalBaffle for region baffle3DRegion
DICPCG:  Solving for h, Initial residual = 7.52788e-05, Final residual = 7.79085e-07, No Iterations 3
T min/max   = min(T) [0 0 0 1 0 0 0] 334.431, max(T) [0 0 0 1 0 0 0] 457.952
DILUPBiCGStab:  Solving for h, Initial residual = 6.63382e-05, Final residual = 3.65654e-07, No Iterations 1
GAMG:  Solving for p_rgh, Initial residual = 0.00428973, Final residual = 2.17929e-05, No Iterations 2
time step continuity errors : sum local = 3.71168e-06, global = -9.718e-08, cumulative = 0.0123552
rho min/max : 0.943073 1.17641
DILUPBiCGStab:  Solving for epsilon, Initial residual = 4.16628e-06, Final residual = 9.88049e-09, No Iterations 1
DILUPBiCGStab:  Solving for k, Initial residual = 4.93288e-06, Final residual = 6.21518e-09, No Iterations 1
ExecutionTime = 41.996 s  ClockTime = 42 s

Time = 2485


Evolving thermalBaffle for region baffle3DRegion
DICPCG:  Solving for h, Initial residual = 9.17206e-05, Final residual = 7.76867e-07, No Iterations 3
T min/max   = min(T) [0 0 0 1 0 0 0] 334.432, max(T) [0 0 0 1 0 0 0] 457.927
DILUPBiCGStab:  Solving for h, Initial residual = 5.5916e-05, Final residual = 3.11117e-07, No Iterations 1
GAMG:  Solving for p_rgh, Initial residual = 0.00469828, Final residual = 2.28033e-05, No Iterations 2
time step continuity errors : sum local = 3.8667e-06, global = -3.82792e-07, cumulative = 0.0123548
rho min/max : 0.943359 1.17641
DILUPBiCGStab:  Solving for epsilon, Initial residual = 4.14539e-06, Final residual = 8.84614e-09, No Iterations 1
DILUPBiCGStab:  Solving for k, Initial residual = 4.91332e-06, Final residual = 5.85651e-09, No Iterations 1
ExecutionTime = 42.012 s  ClockTime = 42 s

Time = 2486


Evolving thermalBaffle for region baffle3DRegion
DICPCG:  Solving for h, Initial residual = 8.94108e-05, Final residual = 5.19485e-07, No Iterations 3
T min/max   = min(T) [0 0 0 1 0 0 0] 334.433, max(T) [0 0 0 1 0 0 0] 457.958
DILUPBiCGStab:  Solving for h, Initial residual = 6.94588e-05, Final residual = 3.30113e-07, No Iterations 1
GAMG:  Solving for p_rgh, Initial residual = 0.00432617, Final residual = 2.22017e-05, No Iterations 2
time step continuity errors : sum local = 3.77897e-06, global = -1.89903e-07, cumulative = 0.0123547
rho min/max : 0.94307 1.17641
DILUPBiCGStab:  Solving for epsilon, Initial residual = 4.13212e-06, Final residual = 9.03731e-09, No Iterations 1
DILUPBiCGStab:  Solving for k, Initial residual = 4.88315e-06, Final residual = 5.86559e-09, No Iterations 1
ExecutionTime = 42.027 s  ClockTime = 42 s

Time = 2487


Evolving thermalBaffle for region baffle3DRegion
DICPCG:  Solving for h, Initial residual = 7.47277e-05, Final residual = 8.67839e-07, No Iterations 3
T min/max   = min(T) [0 0 0 1 0 0 0] 334.433, max(T) [0 0 0 1 0 0 0] 457.887
DILUPBiCGStab:  Solving for h, Initial residual = 5.04689e-05, Final residual = 3.01075e-07, No Iterations 1
GAMG:  Solving for p_rgh, Initial residual = 0.00411584, Final residual = 2.28052e-05, No Iterations 2
time step continuity errors : sum local = 3.86504e-06, global = 2.28755e-08, cumulative = 0.0123547
rho min/max : 0.943381 1.17641
DILUPBiCGStab:  Solving for epsilon, Initial residual = 4.07345e-06, Final residual = 7.55228e-09, No Iterations 1
DILUPBiCGStab:  Solving for k, Initial residual = 4.84245e-06, Final residual = 5.29855e-09, No Iterations 1
ExecutionTime = 42.04 s  ClockTime = 42 s

Time = 2488


Evolving thermalBaffle for region baffle3DRegion
DICPCG:  Solving for h, Initial residual = 7.54095e-05, Final residual = 7.79521e-07, No Iterations 3
T min/max   = min(T) [0 0 0 1 0 0 0] 334.434, max(T) [0 0 0 1 0 0 0] 457.95
DILUPBiCGStab:  Solving for h, Initial residual = 4.9105e-05, Final residual = 3.09702e-07, No Iterations 1
GAMG:  Solving for p_rgh, Initial residual = 0.00413942, Final residual = 2.0272e-05, No Iterations 2
time step continuity errors : sum local = 3.45151e-06, global = 3.14014e-07, cumulative = 0.012355
rho min/max : 0.943075 1.17641
DILUPBiCGStab:  Solving for epsilon, Initial residual = 4.05295e-06, Final residual = 7.07513e-09, No Iterations 1
DILUPBiCGStab:  Solving for k, Initial residual = 4.82417e-06, Final residual = 5.0954e-09, No Iterations 1
ExecutionTime = 42.053 s  ClockTime = 42 s

Time = 2489


Evolving thermalBaffle for region baffle3DRegion
DICPCG:  Solving for h, Initial residual = 9.1838e-05, Final residual = 7.83134e-07, No Iterations 3
T min/max   = min(T) [0 0 0 1 0 0 0] 334.434, max(T) [0 0 0 1 0 0 0] 457.925
DILUPBiCGStab:  Solving for h, Initial residual = 6.83252e-05, Final residual = 3.3906e-07, No Iterations 1
GAMG:  Solving for p_rgh, Initial residual = 0.00463355, Final residual = 2.1711e-05, No Iterations 2
time step continuity errors : sum local = 3.68356e-06, global = -8.20308e-08, cumulative = 0.0123549
rho min/max : 0.94336 1.17641
DILUPBiCGStab:  Solving for epsilon, Initial residual = 4.08454e-06, Final residual = 9.76768e-09, No Iterations 1
DILUPBiCGStab:  Solving for k, Initial residual = 4.84228e-06, Final residual = 6.12743e-09, No Iterations 1
ExecutionTime = 42.066 s  ClockTime = 42 s

Time = 2490


Evolving thermalBaffle for region baffle3DRegion
DICPCG:  Solving for h, Initial residual = 8.97531e-05, Final residual = 5.2462e-07, No Iterations 3
T min/max   = min(T) [0 0 0 1 0 0 0] 334.435, max(T) [0 0 0 1 0 0 0] 457.956
DILUPBiCGStab:  Solving for h, Initial residual = 4.86329e-05, Final residual = 3.24352e-07, No Iterations 1
GAMG:  Solving for p_rgh, Initial residual = 0.00443296, Final residual = 2.31384e-05, No Iterations 2
time step continuity errors : sum local = 3.9426e-06, global = -3.8324e-07, cumulative = 0.0123545
rho min/max : 0.943071 1.17641
DILUPBiCGStab:  Solving for epsilon, Initial residual = 4.08605e-06, Final residual = 8.77741e-09, No Iterations 1
DILUPBiCGStab:  Solving for k, Initial residual = 4.82805e-06, Final residual = 5.78365e-09, No Iterations 1
ExecutionTime = 42.082 s  ClockTime = 42 s

Time = 2491


Evolving thermalBaffle for region baffle3DRegion
DICPCG:  Solving for h, Initial residual = 7.46214e-05, Final residual = 8.74448e-07, No Iterations 3
T min/max   = min(T) [0 0 0 1 0 0 0] 334.436, max(T) [0 0 0 1 0 0 0] 457.885
DILUPBiCGStab:  Solving for h, Initial residual = 7.1735e-05, Final residual = 3.12931e-07, No Iterations 1
GAMG:  Solving for p_rgh, Initial residual = 0.00394898, Final residual = 2.21161e-05, No Iterations 2
time step continuity errors : sum local = 3.74893e-06, global = -2.327e-07, cumulative = 0.0123543
rho min/max : 0.943382 1.17641
DILUPBiCGStab:  Solving for epsilon, Initial residual = 4.05244e-06, Final residual = 8.93598e-09, No Iterations 1
DILUPBiCGStab:  Solving for k, Initial residual = 4.79373e-06, Final residual = 5.78662e-09, No Iterations 1
ExecutionTime = 42.097 s  ClockTime = 42 s

Time = 2492


Evolving thermalBaffle for region baffle3DRegion
DICPCG:  Solving for h, Initial residual = 7.5395e-05, Final residual = 7.77156e-07, No Iterations 3
T min/max   = min(T) [0 0 0 1 0 0 0] 334.436, max(T) [0 0 0 1 0 0 0] 457.948
DILUPBiCGStab:  Solving for h, Initial residual = 5.254e-05, Final residual = 3.15321e-07, No Iterations 1
GAMG:  Solving for p_rgh, Initial residual = 0.00430633, Final residual = 2.14938e-05, No Iterations 2
time step continuity errors : sum local = 3.66075e-06, global = 1.41176e-07, cumulative = 0.0123544
rho min/max : 0.943076 1.17641
DILUPBiCGStab:  Solving for epsilon, Initial residual = 4.01514e-06, Final residual = 7.46393e-09, No Iterations 1
DILUPBiCGStab:  Solving for k, Initial residual = 4.75833e-06, Final residual = 5.24103e-09, No Iterations 1
ExecutionTime = 42.11 s  ClockTime = 42 s

Time = 2493


Evolving thermalBaffle for region baffle3DRegion
DICPCG:  Solving for h, Initial residual = 9.18352e-05, Final residual = 7.8338e-07, No Iterations 3
T min/max   = min(T) [0 0 0 1 0 0 0] 334.437, max(T) [0 0 0 1 0 0 0] 457.923
DILUPBiCGStab:  Solving for h, Initial residual = 5.11137e-05, Final residual = 2.8393e-07, No Iterations 1
GAMG:  Solving for p_rgh, Initial residual = 0.00440997, Final residual = 2.25778e-05, No Iterations 2
time step continuity errors : sum local = 3.8294e-06, global = 2.60774e-07, cumulative = 0.0123547
rho min/max : 0.943361 1.17641
DILUPBiCGStab:  Solving for epsilon, Initial residual = 3.97309e-06, Final residual = 6.95102e-09, No Iterations 1
DILUPBiCGStab:  Solving for k, Initial residual = 4.73478e-06, Final residual = 5.02452e-09, No Iterations 1
ExecutionTime = 42.122 s  ClockTime = 42 s

Time = 2494


Evolving thermalBaffle for region baffle3DRegion
DICPCG:  Solving for h, Initial residual = 8.98002e-05, Final residual = 5.28972e-07, No Iterations 3
T min/max   = min(T) [0 0 0 1 0 0 0] 334.437, max(T) [0 0 0 1 0 0 0] 457.955
DILUPBiCGStab:  Solving for h, Initial residual = 4.24353e-05, Final residual = 2.89215e-07, No Iterations 1
GAMG:  Solving for p_rgh, Initial residual = 0.00404666, Final residual = 2.06578e-05, No Iterations 2
time step continuity errors : sum local = 3.51877e-06, global = 4.01559e-07, cumulative = 0.0123551
rho min/max : 0.943073 1.17641
DILUPBiCGStab:  Solving for epsilon, Initial residual = 3.9659e-06, Final residual = 6.75318e-09, No Iterations 1
DILUPBiCGStab:  Solving for k, Initial residual = 4.7207e-06, Final residual = 4.94321e-09, No Iterations 1
ExecutionTime = 42.136 s  ClockTime = 42 s

Time = 2495


Evolving thermalBaffle for region baffle3DRegion
DICPCG:  Solving for h, Initial residual = 7.4708e-05, Final residual = 8.74129e-07, No Iterations 3
T min/max   = min(T) [0 0 0 1 0 0 0] 334.438, max(T) [0 0 0 1 0 0 0] 457.883
DILUPBiCGStab:  Solving for h, Initial residual = 6.33662e-05, Final residual = 3.50101e-07, No Iterations 1
GAMG:  Solving for p_rgh, Initial residual = 0.00412721, Final residual = 2.22095e-05, No Iterations 2
time step continuity errors : sum local = 3.76904e-06, global = -1.58805e-07, cumulative = 0.0123549
rho min/max : 0.943384 1.17641
DILUPBiCGStab:  Solving for epsilon, Initial residual = 4.00076e-06, Final residual = 9.89126e-09, No Iterations 1
DILUPBiCGStab:  Solving for k, Initial residual = 4.73866e-06, Final residual = 6.1536e-09, No Iterations 1
ExecutionTime = 42.149 s  ClockTime = 42 s

Time = 2496


Evolving thermalBaffle for region baffle3DRegion
DICPCG:  Solving for h, Initial residual = 7.52999e-05, Final residual = 7.74659e-07, No Iterations 3
T min/max   = min(T) [0 0 0 1 0 0 0] 334.438, max(T) [0 0 0 1 0 0 0] 457.946
DILUPBiCGStab:  Solving for h, Initial residual = 5.45687e-05, Final residual = 3.45321e-07, No Iterations 1
GAMG:  Solving for p_rgh, Initial residual = 0.00435245, Final residual = 2.36673e-05, No Iterations 2
time step continuity errors : sum local = 4.03418e-06, global = -4.33094e-07, cumulative = 0.0123545
rho min/max : 0.943078 1.17641
DILUPBiCGStab:  Solving for epsilon, Initial residual = 4.00305e-06, Final residual = 8.7909e-09, No Iterations 1
DILUPBiCGStab:  Solving for k, Initial residual = 4.72503e-06, Final residual = 5.76676e-09, No Iterations 1
ExecutionTime = 42.162 s  ClockTime = 42 s

Time = 2497


Evolving thermalBaffle for region baffle3DRegion
DICPCG:  Solving for h, Initial residual = 9.17607e-05, Final residual = 7.77175e-07, No Iterations 3
T min/max   = min(T) [0 0 0 1 0 0 0] 334.439, max(T) [0 0 0 1 0 0 0] 457.922
DILUPBiCGStab:  Solving for h, Initial residual = 7.64548e-05, Final residual = 3.03649e-07, No Iterations 1
GAMG:  Solving for p_rgh, Initial residual = 0.00451786, Final residual = 2.31979e-05, No Iterations 2
time step continuity errors : sum local = 3.93476e-06, global = -2.42459e-07, cumulative = 0.0123543
rho min/max : 0.943363 1.17641
DILUPBiCGStab:  Solving for epsilon, Initial residual = 3.9671e-06, Final residual = 8.71194e-09, No Iterations 1
DILUPBiCGStab:  Solving for k, Initial residual = 4.68957e-06, Final residual = 5.68381e-09, No Iterations 1
ExecutionTime = 42.176 s  ClockTime = 42 s

Time = 2498


Evolving thermalBaffle for region baffle3DRegion
DICPCG:  Solving for h, Initial residual = 8.97319e-05, Final residual = 5.32305e-07, No Iterations 3
T min/max   = min(T) [0 0 0 1 0 0 0] 334.439, max(T) [0 0 0 1 0 0 0] 457.953
DILUPBiCGStab:  Solving for h, Initial residual = 4.73688e-05, Final residual = 2.97306e-07, No Iterations 1
GAMG:  Solving for p_rgh, Initial residual = 0.00438753, Final residual = 2.16374e-05, No Iterations 2
time step continuity errors : sum local = 3.68728e-06, global = -3.58651e-08, cumulative = 0.0123542
rho min/max : 0.943074 1.17641
DILUPBiCGStab:  Solving for epsilon, Initial residual = 3.93172e-06, Final residual = 7.30615e-09, No Iterations 1
DILUPBiCGStab:  Solving for k, Initial residual = 4.65497e-06, Final residual = 5.15051e-09, No Iterations 1
ExecutionTime = 42.189 s  ClockTime = 42 s

Time = 2499


Evolving thermalBaffle for region baffle3DRegion
DICPCG:  Solving for h, Initial residual = 7.44268e-05, Final residual = 8.71127e-07, No Iterations 3
T min/max   = min(T) [0 0 0 1 0 0 0] 334.44, max(T) [0 0 0 1 0 0 0] 457.882
DILUPBiCGStab:  Solving for h, Initial residual = 4.59985e-05, Final residual = 2.78388e-07, No Iterations 1
GAMG:  Solving for p_rgh, Initial residual = 0.00389417, Final residual = 2.20542e-05, No Iterations 2
time step continuity errors : sum local = 3.74132e-06, global = 2.02169e-07, cumulative = 0.0123544
rho min/max : 0.943385 1.17641
DILUPBiCGStab:  Solving for epsilon, Initial residual = 3.89142e-06, Final residual = 6.81387e-09, No Iterations 1
DILUPBiCGStab:  Solving for k, Initial residual = 4.63312e-06, Final residual = 4.94047e-09, No Iterations 1
ExecutionTime = 42.202 s  ClockTime = 42 s

Time = 2500


Evolving thermalBaffle for region baffle3DRegion
DICPCG:  Solving for h, Initial residual = 7.50022e-05, Final residual = 7.68187e-07, No Iterations 3
T min/max   = min(T) [0 0 0 1 0 0 0] 334.441, max(T) [0 0 0 1 0 0 0] 457.945
DILUPBiCGStab:  Solving for h, Initial residual = 4.67339e-05, Final residual = 2.90982e-07, No Iterations 1
GAMG:  Solving for p_rgh, Initial residual = 0.00400703, Final residual = 2.08899e-05, No Iterations 2
time step continuity errors : sum local = 3.55965e-06, global = 4.21849e-07, cumulative = 0.0123549
rho min/max : 0.943079 1.17641
DILUPBiCGStab:  Solving for epsilon, Initial residual = 3.88605e-06, Final residual = 6.62404e-09, No Iterations 1
DILUPBiCGStab:  Solving for k, Initial residual = 4.61937e-06, Final residual = 4.85194e-09, No Iterations 1
ExecutionTime = 42.297 s  ClockTime = 42 s

End

