/*---------------------------------------------------------------------------*\
| =========                 |                                                 |
| \\      /  F ield         | OpenFOAM: The Open Source CFD Toolbox           |
|  \\    /   O peration     | Version:  v1906                                 |
|   \\  /    A nd           | Web:      www.OpenFOAM.com                      |
|    \\/     M anipulation  |                                                 |
\*---------------------------------------------------------------------------*/
Build  : fc3d515-20190712 OPENFOAM=1906 patch=190708
Arch   : "LSB;label=32;scalar=64"
Exec   : D:\OpenFoam\v1906\msys64\home\ofuser\OpenFOAM\OpenFOAM-v1906\platforms\linux64MingwDPInt32Opt\bin\icoFoam.exe
Date   : Mar 15 2020
Time   : 22:10:42
Host   : NICK
PID    : 3856
I/O    : uncollated
Case   : D:/OpenFoam/v1906/msys64/home/Nick/run/flat_plate_lowvis
nProcs : 1
trapFpe: Floating point exception trapping enabled (FOAM_SIGFPE).
fileModificationChecking : Monitoring run-time modified files using timeStampMaster (fileModificationSkew 10)
allowSystemOperations : Allowing user-supplied system call operations

// * * * * * * * * * * * * * * * * * * * * * * * * * * * * * * * * * * * * * //
Create time

Create mesh for time = 0


PISO: Operating solver in PISO mode

Reading transportProperties

Reading field p

Reading field U

Reading/calculating face flux field phi


Starting time loop

Time = 0.00025

Courant Number mean: 0.05 max: 0.139886
smoothSolver:  Solving for Ux, Initial residual = 1, Final residual = 1.74091e-06, No Iterations 2
smoothSolver:  Solving for Uy, Initial residual = 0, Final residual = 0, No Iterations 0
DICPCG:  Solving for p, Initial residual = 1, Final residual = 0.038898, No Iterations 96
time step continuity errors : sum local = 4.30518e-10, global = -4.18346e-20, cumulative = -4.18346e-20
DICPCG:  Solving for p, Initial residual = 0.00335688, Final residual = 9.72188e-07, No Iterations 108
time step continuity errors : sum local = 3.97691e-13, global = -9.99377e-20, cumulative = -1.41772e-19
ExecutionTime = 0.213 s  ClockTime = 0 s

Time = 0.0005

Courant Number mean: 0.0500001 max: 0.140064
smoothSolver:  Solving for Ux, Initial residual = 0.11915, Final residual = 1.99714e-07, No Iterations 2
smoothSolver:  Solving for Uy, Initial residual = 0.154823, Final residual = 1.33565e-06, No Iterations 2
DICPCG:  Solving for p, Initial residual = 0.00876273, Final residual = 0.000380021, No Iterations 95
time step continuity errors : sum local = 1.51934e-10, global = -4.70366e-19, cumulative = -6.12138e-19
DICPCG:  Solving for p, Initial residual = 0.000790079, Final residual = 7.89055e-07, No Iterations 104
time step continuity errors : sum local = 3.71466e-13, global = -5.17111e-19, cumulative = -1.12925e-18
ExecutionTime = 0.262 s  ClockTime = 0 s

Time = 0.00075

Courant Number mean: 0.0500004 max: 0.140258
smoothSolver:  Solving for Ux, Initial residual = 0.0683214, Final residual = 1.14046e-07, No Iterations 2
smoothSolver:  Solving for Uy, Initial residual = 0.0913967, Final residual = 7.76811e-07, No Iterations 2
DICPCG:  Solving for p, Initial residual = 0.00436272, Final residual = 0.000180724, No Iterations 93
time step continuity errors : sum local = 8.47999e-11, global = -1.87367e-21, cumulative = -1.13112e-18
DICPCG:  Solving for p, Initial residual = 0.000374185, Final residual = 9.34283e-07, No Iterations 101
time step continuity errors : sum local = 4.54397e-13, global = -3.63528e-19, cumulative = -1.49465e-18
ExecutionTime = 0.311 s  ClockTime = 0 s

Time = 0.001

Courant Number mean: 0.0500007 max: 0.140459
smoothSolver:  Solving for Ux, Initial residual = 0.0472913, Final residual = 7.85606e-08, No Iterations 2
smoothSolver:  Solving for Uy, Initial residual = 0.0630381, Final residual = 5.33833e-07, No Iterations 2
DICPCG:  Solving for p, Initial residual = 0.00294813, Final residual = 0.000139188, No Iterations 93
time step continuity errors : sum local = 6.7751e-11, global = -6.0237e-19, cumulative = -2.09702e-18
DICPCG:  Solving for p, Initial residual = 0.00025486, Final residual = 8.94824e-07, No Iterations 98
time step continuity errors : sum local = 4.16253e-13, global = -5.61394e-20, cumulative = -2.15316e-18
ExecutionTime = 0.369 s  ClockTime = 0 s

Time = 0.00125

Courant Number mean: 0.0500009 max: 0.140657
smoothSolver:  Solving for Ux, Initial residual = 0.0349758, Final residual = 5.7558e-08, No Iterations 2
smoothSolver:  Solving for Uy, Initial residual = 0.0448817, Final residual = 3.83778e-07, No Iterations 2
DICPCG:  Solving for p, Initial residual = 0.00359129, Final residual = 0.000175661, No Iterations 93
time step continuity errors : sum local = 8.17224e-11, global = -4.02028e-19, cumulative = -2.55519e-18
DICPCG:  Solving for p, Initial residual = 0.000319917, Final residual = 9.88086e-07, No Iterations 96
time step continuity errors : sum local = 4.3381e-13, global = -5.62584e-19, cumulative = -3.11777e-18
ExecutionTime = 0.426 s  ClockTime = 0 s

Time = 0.0015

Courant Number mean: 0.0500011 max: 0.140851
smoothSolver:  Solving for Ux, Initial residual = 0.0272991, Final residual = 4.4533e-08, No Iterations 2
smoothSolver:  Solving for Uy, Initial residual = 0.0339688, Final residual = 2.94377e-07, No Iterations 2
DICPCG:  Solving for p, Initial residual = 0.00273357, Final residual = 0.000114672, No Iterations 83
time step continuity errors : sum local = 5.07604e-11, global = -2.48596e-19, cumulative = -3.36637e-18
DICPCG:  Solving for p, Initial residual = 0.000205742, Final residual = 9.29701e-07, No Iterations 91
time step continuity errors : sum local = 4.07546e-13, global = 2.98431e-19, cumulative = -3.06794e-18
ExecutionTime = 0.492 s  ClockTime = 0 s

Time = 0.00175

Courant Number mean: 0.0500013 max: 0.141042
smoothSolver:  Solving for Ux, Initial residual = 0.0227605, Final residual = 3.68374e-08, No Iterations 2
smoothSolver:  Solving for Uy, Initial residual = 0.0283777, Final residual = 2.47355e-07, No Iterations 2
DICPCG:  Solving for p, Initial residual = 0.00263675, Final residual = 0.000118647, No Iterations 91
time step continuity errors : sum local = 5.23565e-11, global = 6.96063e-20, cumulative = -2.99833e-18
DICPCG:  Solving for p, Initial residual = 0.000214548, Final residual = 8.9921e-07, No Iterations 93
time step continuity errors : sum local = 3.81733e-13, global = -2.94785e-19, cumulative = -3.29312e-18
ExecutionTime = 0.542 s  ClockTime = 0 s

Time = 0.002

Courant Number mean: 0.0500015 max: 0.141228
smoothSolver:  Solving for Ux, Initial residual = 0.0192561, Final residual = 3.09039e-08, No Iterations 2
smoothSolver:  Solving for Uy, Initial residual = 0.0239153, Final residual = 2.09769e-07, No Iterations 2
DICPCG:  Solving for p, Initial residual = 0.00265654, Final residual = 0.000128976, No Iterations 91
time step continuity errors : sum local = 5.52495e-11, global = -1.68791e-19, cumulative = -3.46191e-18
DICPCG:  Solving for p, Initial residual = 0.000223599, Final residual = 9.82317e-07, No Iterations 94
time step continuity errors : sum local = 4.05885e-13, global = -3.3437e-19, cumulative = -3.79628e-18
ExecutionTime = 0.59 s  ClockTime = 0 s

Time = 0.00225

Courant Number mean: 0.0500017 max: 0.141407
smoothSolver:  Solving for Ux, Initial residual = 0.0166146, Final residual = 2.64251e-08, No Iterations 2
smoothSolver:  Solving for Uy, Initial residual = 0.0205565, Final residual = 1.81553e-07, No Iterations 2
DICPCG:  Solving for p, Initial residual = 0.00260982, Final residual = 0.000112593, No Iterations 92
time step continuity errors : sum local = 4.67409e-11, global = -6.19875e-19, cumulative = -4.41615e-18
DICPCG:  Solving for p, Initial residual = 0.000207282, Final residual = 7.51674e-07, No Iterations 98
time step continuity errors : sum local = 3.00219e-13, global = -8.34669e-20, cumulative = -4.49962e-18
ExecutionTime = 0.646 s  ClockTime = 0 s

Time = 0.0025

Courant Number mean: 0.0500018 max: 0.141577
smoothSolver:  Solving for Ux, Initial residual = 0.0145444, Final residual = 2.29103e-08, No Iterations 2
smoothSolver:  Solving for Uy, Initial residual = 0.0179294, Final residual = 1.59437e-07, No Iterations 2
DICPCG:  Solving for p, Initial residual = 0.00270221, Final residual = 0.000111505, No Iterations 92
time step continuity errors : sum local = 4.48885e-11, global = 3.64729e-19, cumulative = -4.13489e-18
DICPCG:  Solving for p, Initial residual = 0.000207926, Final residual = 8.39058e-07, No Iterations 98
time step continuity errors : sum local = 3.25129e-13, global = -2.53292e-19, cumulative = -4.38818e-18
ExecutionTime = 0.704 s  ClockTime = 0 s

Time = 0.00275

Courant Number mean: 0.0500019 max: 0.141738
smoothSolver:  Solving for Ux, Initial residual = 0.0128946, Final residual = 2.01058e-08, No Iterations 2
smoothSolver:  Solving for Uy, Initial residual = 0.0158495, Final residual = 1.41823e-07, No Iterations 2
DICPCG:  Solving for p, Initial residual = 0.00283125, Final residual = 0.000134944, No Iterations 91
time step continuity errors : sum local = 5.28308e-11, global = -7.70927e-20, cumulative = -4.46528e-18
DICPCG:  Solving for p, Initial residual = 0.000234777, Final residual = 8.97074e-07, No Iterations 98
time step continuity errors : sum local = 3.37954e-13, global = -5.75365e-20, cumulative = -4.52281e-18
ExecutionTime = 0.751 s  ClockTime = 0 s

Time = 0.003

Courant Number mean: 0.050002 max: 0.141887
smoothSolver:  Solving for Ux, Initial residual = 0.0115508, Final residual = 9.42569e-06, No Iterations 1
smoothSolver:  Solving for Uy, Initial residual = 0.0141638, Final residual = 1.2761e-07, No Iterations 2
DICPCG:  Solving for p, Initial residual = 0.0028777, Final residual = 0.000128573, No Iterations 91
time step continuity errors : sum local = 4.88986e-11, global = -5.96645e-20, cumulative = -4.58248e-18
DICPCG:  Solving for p, Initial residual = 0.000245843, Final residual = 8.75959e-07, No Iterations 98
time step continuity errors : sum local = 3.21182e-13, global = 1.52015e-19, cumulative = -4.43046e-18
ExecutionTime = 0.8 s  ClockTime = 0 s

Time = 0.00325

Courant Number mean: 0.0500021 max: 0.142024
smoothSolver:  Solving for Ux, Initial residual = 0.0104418, Final residual = 8.47953e-06, No Iterations 1
smoothSolver:  Solving for Uy, Initial residual = 0.0127895, Final residual = 1.16121e-07, No Iterations 2
DICPCG:  Solving for p, Initial residual = 0.00276737, Final residual = 0.000118917, No Iterations 91
time step continuity errors : sum local = 4.40232e-11, global = -2.81551e-19, cumulative = -4.71201e-18
DICPCG:  Solving for p, Initial residual = 0.000235305, Final residual = 8.59396e-07, No Iterations 98
time step continuity errors : sum local = 3.07559e-13, global = -5.70355e-19, cumulative = -5.28237e-18
ExecutionTime = 0.845 s  ClockTime = 0 s

Time = 0.0035

Courant Number mean: 0.0500022 max: 0.142148
smoothSolver:  Solving for Ux, Initial residual = 0.00951808, Final residual = 7.69462e-06, No Iterations 1
smoothSolver:  Solving for Uy, Initial residual = 0.0116795, Final residual = 1.0678e-07, No Iterations 2
DICPCG:  Solving for p, Initial residual = 0.00291188, Final residual = 0.000127542, No Iterations 90
time step continuity errors : sum local = 4.6031e-11, global = 1.81698e-19, cumulative = -5.10067e-18
DICPCG:  Solving for p, Initial residual = 0.000250661, Final residual = 8.95238e-07, No Iterations 97
time step continuity errors : sum local = 3.14308e-13, global = -2.8113e-20, cumulative = -5.12878e-18
ExecutionTime = 0.887 s  ClockTime = 0 s

Time = 0.00375

Courant Number mean: 0.0500022 max: 0.142259
smoothSolver:  Solving for Ux, Initial residual = 0.00874258, Final residual = 7.03577e-06, No Iterations 1
smoothSolver:  Solving for Uy, Initial residual = 0.0107673, Final residual = 9.90165e-08, No Iterations 2
DICPCG:  Solving for p, Initial residual = 0.00288859, Final residual = 0.000130634, No Iterations 89
time step continuity errors : sum local = 4.61979e-11, global = -2.85785e-19, cumulative = -5.41457e-18
DICPCG:  Solving for p, Initial residual = 0.000259554, Final residual = 7.19715e-07, No Iterations 97
time step continuity errors : sum local = 2.49133e-13, global = -4.02929e-19, cumulative = -5.8175e-18
ExecutionTime = 0.932 s  ClockTime = 1 s

Time = 0.004

Courant Number mean: 0.0500023 max: 0.142355
smoothSolver:  Solving for Ux, Initial residual = 0.00808816, Final residual = 6.48183e-06, No Iterations 1
smoothSolver:  Solving for Uy, Initial residual = 0.0100123, Final residual = 9.25121e-08, No Iterations 2
DICPCG:  Solving for p, Initial residual = 0.00283147, Final residual = 0.000120505, No Iterations 88
time step continuity errors : sum local = 4.18184e-11, global = 2.44544e-19, cumulative = -5.57295e-18
DICPCG:  Solving for p, Initial residual = 0.000243953, Final residual = 9.7925e-07, No Iterations 96
time step continuity errors : sum local = 3.34973e-13, global = -3.07e-19, cumulative = -5.87995e-18
ExecutionTime = 0.975 s  ClockTime = 1 s

Time = 0.00425

Courant Number mean: 0.0500023 max: 0.142437
smoothSolver:  Solving for Ux, Initial residual = 0.00753615, Final residual = 6.01571e-06, No Iterations 1
smoothSolver:  Solving for Uy, Initial residual = 0.00939148, Final residual = 8.70679e-08, No Iterations 2
DICPCG:  Solving for p, Initial residual = 0.00288675, Final residual = 0.000126311, No Iterations 85
time step continuity errors : sum local = 4.31168e-11, global = 1.11874e-19, cumulative = -5.76808e-18
DICPCG:  Solving for p, Initial residual = 0.000249653, Final residual = 9.13369e-07, No Iterations 95
time step continuity errors : sum local = 3.09801e-13, global = -5.39895e-20, cumulative = -5.82207e-18
ExecutionTime = 1.017 s  ClockTime = 1 s

Time = 0.0045

Courant Number mean: 0.0500023 max: 0.142505
smoothSolver:  Solving for Ux, Initial residual = 0.0070633, Final residual = 5.61491e-06, No Iterations 1
smoothSolver:  Solving for Uy, Initial residual = 0.00886709, Final residual = 8.24478e-08, No Iterations 2
DICPCG:  Solving for p, Initial residual = 0.00277993, Final residual = 0.000123328, No Iterations 42
time step continuity errors : sum local = 4.89634e-11, global = -1.81335e-19, cumulative = -6.0034e-18
DICPCG:  Solving for p, Initial residual = 0.000237119, Final residual = 8.50589e-07, No Iterations 92
time step continuity errors : sum local = 2.8962e-13, global = 3.13723e-19, cumulative = -5.68968e-18
ExecutionTime = 1.052 s  ClockTime = 1 s

Time = 0.00475

Courant Number mean: 0.0500024 max: 0.142557
smoothSolver:  Solving for Ux, Initial residual = 0.00666226, Final residual = 5.27377e-06, No Iterations 1
smoothSolver:  Solving for Uy, Initial residual = 0.00843887, Final residual = 7.86198e-08, No Iterations 2
DICPCG:  Solving for p, Initial residual = 0.00268154, Final residual = 0.000130094, No Iterations 47
time step continuity errors : sum local = 5.3981e-11, global = -3.87163e-19, cumulative = -6.07684e-18
DICPCG:  Solving for p, Initial residual = 0.000245895, Final residual = 9.94526e-07, No Iterations 96
time step continuity errors : sum local = 3.37698e-13, global = -2.40621e-19, cumulative = -6.31747e-18
ExecutionTime = 1.09 s  ClockTime = 1 s

Time = 0.005

Courant Number mean: 0.0500024 max: 0.142596
smoothSolver:  Solving for Ux, Initial residual = 0.00633062, Final residual = 4.99037e-06, No Iterations 1
smoothSolver:  Solving for Uy, Initial residual = 0.00811226, Final residual = 7.56036e-08, No Iterations 2
DICPCG:  Solving for p, Initial residual = 0.0027312, Final residual = 0.000116068, No Iterations 89
time step continuity errors : sum local = 3.97866e-11, global = -9.0846e-20, cumulative = -6.40831e-18
DICPCG:  Solving for p, Initial residual = 0.000233337, Final residual = 9.90617e-07, No Iterations 94
time step continuity errors : sum local = 3.43846e-13, global = 3.71978e-19, cumulative = -6.03633e-18
ExecutionTime = 1.133 s  ClockTime = 1 s

Time = 0.00525

Courant Number mean: 0.0500025 max: 0.142621
smoothSolver:  Solving for Ux, Initial residual = 0.00606116, Final residual = 4.75938e-06, No Iterations 1
smoothSolver:  Solving for Uy, Initial residual = 0.0078786, Final residual = 7.33476e-08, No Iterations 2
DICPCG:  Solving for p, Initial residual = 0.00312955, Final residual = 0.000143891, No Iterations 91
time step continuity errors : sum local = 5.03523e-11, global = -2.719e-19, cumulative = -6.30823e-18
DICPCG:  Solving for p, Initial residual = 0.000257897, Final residual = 9.20493e-07, No Iterations 99
time step continuity errors : sum local = 3.3067e-13, global = 1.60562e-19, cumulative = -6.14767e-18
ExecutionTime = 1.179 s  ClockTime = 1 s

Time = 0.0055

Courant Number mean: 0.0500025 max: 0.142633
smoothSolver:  Solving for Ux, Initial residual = 0.00585927, Final residual = 4.58475e-06, No Iterations 1
smoothSolver:  Solving for Uy, Initial residual = 0.00775887, Final residual = 7.19266e-08, No Iterations 2
DICPCG:  Solving for p, Initial residual = 0.00418663, Final residual = 0.000189338, No Iterations 91
time step continuity errors : sum local = 6.83739e-11, global = -9.50517e-20, cumulative = -6.24272e-18
DICPCG:  Solving for p, Initial residual = 0.000412094, Final residual = 9.87312e-07, No Iterations 99
time step continuity errors : sum local = 3.37997e-13, global = 2.40925e-19, cumulative = -6.0018e-18
ExecutionTime = 1.222 s  ClockTime = 1 s

Time = 0.00575

Courant Number mean: 0.0500026 max: 0.142629
smoothSolver:  Solving for Ux, Initial residual = 0.00546268, Final residual = 4.25239e-06, No Iterations 1
smoothSolver:  Solving for Uy, Initial residual = 0.00718104, Final residual = 6.70249e-08, No Iterations 2
DICPCG:  Solving for p, Initial residual = 0.0039167, Final residual = 0.000194515, No Iterations 88
time step continuity errors : sum local = 6.69805e-11, global = -4.44896e-19, cumulative = -6.44669e-18
DICPCG:  Solving for p, Initial residual = 0.000387811, Final residual = 7.77539e-07, No Iterations 97
time step continuity errors : sum local = 2.59806e-13, global = 1.37842e-19, cumulative = -6.30885e-18
ExecutionTime = 1.264 s  ClockTime = 1 s

Time = 0.006

Courant Number mean: 0.0500026 max: 0.14261
smoothSolver:  Solving for Ux, Initial residual = 0.00515839, Final residual = 3.99747e-06, No Iterations 1
smoothSolver:  Solving for Uy, Initial residual = 0.00677579, Final residual = 6.37543e-08, No Iterations 2
DICPCG:  Solving for p, Initial residual = 0.00543686, Final residual = 0.000261609, No Iterations 92
time step continuity errors : sum local = 8.81172e-11, global = -4.4978e-19, cumulative = -6.75863e-18
DICPCG:  Solving for p, Initial residual = 0.000601905, Final residual = 8.19666e-07, No Iterations 97
time step continuity errors : sum local = 2.54331e-13, global = -2.83626e-19, cumulative = -7.04226e-18
ExecutionTime = 1.314 s  ClockTime = 1 s

Time = 0.00625

Courant Number mean: 0.0500026 max: 0.142573
smoothSolver:  Solving for Ux, Initial residual = 0.00476034, Final residual = 3.66731e-06, No Iterations 1
smoothSolver:  Solving for Uy, Initial residual = 0.00615682, Final residual = 5.88014e-08, No Iterations 2
DICPCG:  Solving for p, Initial residual = 0.0049144, Final residual = 0.000244276, No Iterations 4
time step continuity errors : sum local = 7.5866e-11, global = -4.78649e-20, cumulative = -7.09012e-18
DICPCG:  Solving for p, Initial residual = 0.00041701, Final residual = 9.87015e-07, No Iterations 99
time step continuity errors : sum local = 3.07548e-13, global = 2.72667e-19, cumulative = -6.81746e-18
ExecutionTime = 1.343 s  ClockTime = 1 s

Time = 0.0065

Courant Number mean: 0.0500026 max: 0.142524
smoothSolver:  Solving for Ux, Initial residual = 0.0045699, Final residual = 3.506e-06, No Iterations 1
smoothSolver:  Solving for Uy, Initial residual = 0.00597322, Final residual = 5.71906e-08, No Iterations 2
DICPCG:  Solving for p, Initial residual = 0.0124992, Final residual = 0.000570996, No Iterations 83
time step continuity errors : sum local = 1.77248e-10, global = 2.88066e-19, cumulative = -6.52939e-18
DICPCG:  Solving for p, Initial residual = 0.00105447, Final residual = 8.88223e-07, No Iterations 103
time step continuity errors : sum local = 2.82846e-13, global = -3.64043e-19, cumulative = -6.89343e-18
ExecutionTime = 1.386 s  ClockTime = 1 s

Time = 0.00675

Courant Number mean: 0.0500026 max: 0.142462
smoothSolver:  Solving for Ux, Initial residual = 0.00447428, Final residual = 3.42386e-06, No Iterations 1
smoothSolver:  Solving for Uy, Initial residual = 0.0059854, Final residual = 5.70764e-08, No Iterations 2
DICPCG:  Solving for p, Initial residual = 0.00808907, Final residual = 0.000361059, No Iterations 45
time step continuity errors : sum local = 1.43866e-10, global = -4.46415e-19, cumulative = -7.33985e-18
DICPCG:  Solving for p, Initial residual = 0.000609777, Final residual = 8.91716e-07, No Iterations 97
time step continuity errors : sum local = 2.87011e-13, global = -2.403e-19, cumulative = -7.58015e-18
ExecutionTime = 1.462 s  ClockTime = 1 s

Time = 0.007

Courant Number mean: 0.0500026 max: 0.14239
smoothSolver:  Solving for Ux, Initial residual = 0.00427831, Final residual = 3.26141e-06, No Iterations 1
smoothSolver:  Solving for Uy, Initial residual = 0.00575262, Final residual = 5.49967e-08, No Iterations 2
DICPCG:  Solving for p, Initial residual = 0.0069492, Final residual = 0.000325389, No Iterations 39
time step continuity errors : sum local = 1.21481e-10, global = 9.22647e-20, cumulative = -7.48788e-18
DICPCG:  Solving for p, Initial residual = 0.000647047, Final residual = 7.58853e-07, No Iterations 98
time step continuity errors : sum local = 2.4147e-13, global = -4.43528e-19, cumulative = -7.93141e-18
ExecutionTime = 1.52 s  ClockTime = 1 s

Time = 0.00725

Courant Number mean: 0.0500026 max: 0.142309
smoothSolver:  Solving for Ux, Initial residual = 0.0041472, Final residual = 3.15111e-06, No Iterations 1
smoothSolver:  Solving for Uy, Initial residual = 0.00563936, Final residual = 5.38092e-08, No Iterations 2
DICPCG:  Solving for p, Initial residual = 0.00509635, Final residual = 0.000233834, No Iterations 87
time step continuity errors : sum local = 7.53768e-11, global = -8.96546e-20, cumulative = -8.02107e-18
DICPCG:  Solving for p, Initial residual = 0.000434313, Final residual = 7.79547e-07, No Iterations 96
time step continuity errors : sum local = 2.5751e-13, global = -4.87184e-19, cumulative = -8.50825e-18
ExecutionTime = 1.573 s  ClockTime = 1 s

Time = 0.0075

Courant Number mean: 0.0500026 max: 0.142221
smoothSolver:  Solving for Ux, Initial residual = 0.00404262, Final residual = 3.06234e-06, No Iterations 1
smoothSolver:  Solving for Uy, Initial residual = 0.00557417, Final residual = 5.29793e-08, No Iterations 2
DICPCG:  Solving for p, Initial residual = 0.00430776, Final residual = 0.000171454, No Iterations 89
time step continuity errors : sum local = 5.68006e-11, global = 3.76995e-19, cumulative = -8.13126e-18
DICPCG:  Solving for p, Initial residual = 0.000360465, Final residual = 8.23798e-07, No Iterations 99
time step continuity errors : sum local = 2.76984e-13, global = -5.60493e-19, cumulative = -8.69175e-18
ExecutionTime = 1.627 s  ClockTime = 1 s

Time = 0.00775

Courant Number mean: 0.0500027 max: 0.142127
smoothSolver:  Solving for Ux, Initial residual = 0.00394144, Final residual = 2.97664e-06, No Iterations 1
smoothSolver:  Solving for Uy, Initial residual = 0.0055016, Final residual = 5.21267e-08, No Iterations 2
DICPCG:  Solving for p, Initial residual = 0.00634414, Final residual = 0.000284305, No Iterations 6
time step continuity errors : sum local = 9.56767e-11, global = -1.81538e-19, cumulative = -8.87329e-18
DICPCG:  Solving for p, Initial residual = 0.000531744, Final residual = 9.85337e-07, No Iterations 100
time step continuity errors : sum local = 3.32842e-13, global = -5.10782e-19, cumulative = -9.38407e-18
ExecutionTime = 1.657 s  ClockTime = 1 s

Time = 0.008

Courant Number mean: 0.0500027 max: 0.142027
smoothSolver:  Solving for Ux, Initial residual = 0.00381711, Final residual = 2.87237e-06, No Iterations 1
smoothSolver:  Solving for Uy, Initial residual = 0.00536604, Final residual = 5.07452e-08, No Iterations 2
DICPCG:  Solving for p, Initial residual = 0.00687647, Final residual = 0.000296314, No Iterations 85
time step continuity errors : sum local = 1.00889e-10, global = 8.65432e-20, cumulative = -9.29753e-18
DICPCG:  Solving for p, Initial residual = 0.000564228, Final residual = 7.00382e-07, No Iterations 100
time step continuity errors : sum local = 2.32751e-13, global = 2.49444e-20, cumulative = -9.27258e-18
ExecutionTime = 1.7 s  ClockTime = 1 s

Time = 0.00825

Courant Number mean: 0.0500028 max: 0.141923
smoothSolver:  Solving for Ux, Initial residual = 0.00363636, Final residual = 2.72289e-06, No Iterations 1
smoothSolver:  Solving for Uy, Initial residual = 0.00508794, Final residual = 4.82971e-08, No Iterations 2
DICPCG:  Solving for p, Initial residual = 0.00991709, Final residual = 0.000465765, No Iterations 90
time step continuity errors : sum local = 1.54741e-10, global = 1.98426e-19, cumulative = -9.07416e-18
DICPCG:  Solving for p, Initial residual = 0.000684573, Final residual = 9.68291e-07, No Iterations 101
time step continuity errors : sum local = 3.49592e-13, global = -2.34624e-19, cumulative = -9.30878e-18
ExecutionTime = 1.745 s  ClockTime = 1 s

Time = 0.0085

Courant Number mean: 0.0500028 max: 0.141818
smoothSolver:  Solving for Ux, Initial residual = 0.00368817, Final residual = 2.75939e-06, No Iterations 1
smoothSolver:  Solving for Uy, Initial residual = 0.00533727, Final residual = 4.98484e-08, No Iterations 2
DICPCG:  Solving for p, Initial residual = 0.00649616, Final residual = 0.000311574, No Iterations 92
time step continuity errors : sum local = 1.12651e-10, global = -2.82258e-19, cumulative = -9.59104e-18
DICPCG:  Solving for p, Initial residual = 0.000459951, Final residual = 9.98734e-07, No Iterations 100
time step continuity errors : sum local = 3.90681e-13, global = 4.46375e-20, cumulative = -9.5464e-18
ExecutionTime = 1.799 s  ClockTime = 1 s

Time = 0.00875

Courant Number mean: 0.050003 max: 0.141714
smoothSolver:  Solving for Ux, Initial residual = 0.00373454, Final residual = 2.79257e-06, No Iterations 1
smoothSolver:  Solving for Uy, Initial residual = 0.00556209, Final residual = 5.12257e-08, No Iterations 2
DICPCG:  Solving for p, Initial residual = 0.00387255, Final residual = 0.000172717, No Iterations 90
time step continuity errors : sum local = 6.77043e-11, global = -2.28564e-19, cumulative = -9.77496e-18
DICPCG:  Solving for p, Initial residual = 0.000304392, Final residual = 9.78423e-07, No Iterations 99
time step continuity errors : sum local = 3.93944e-13, global = 6.38588e-20, cumulative = -9.71111e-18
ExecutionTime = 1.847 s  ClockTime = 1 s

Time = 0.009

Courant Number mean: 0.0500031 max: 0.141611
smoothSolver:  Solving for Ux, Initial residual = 0.00367923, Final residual = 2.747e-06, No Iterations 1
smoothSolver:  Solving for Uy, Initial residual = 0.00554022, Final residual = 5.08038e-08, No Iterations 2
DICPCG:  Solving for p, Initial residual = 0.00352549, Final residual = 0.000141526, No Iterations 90
time step continuity errors : sum local = 5.70963e-11, global = -1.68612e-19, cumulative = -9.87972e-18
DICPCG:  Solving for p, Initial residual = 0.000274578, Final residual = 8.44603e-07, No Iterations 99
time step continuity errors : sum local = 3.47635e-13, global = 4.32053e-19, cumulative = -9.44766e-18
ExecutionTime = 1.896 s  ClockTime = 1 s

Time = 0.00925

Courant Number mean: 0.0500033 max: 0.14151
smoothSolver:  Solving for Ux, Initial residual = 0.00361612, Final residual = 2.69508e-06, No Iterations 1
smoothSolver:  Solving for Uy, Initial residual = 0.00548956, Final residual = 5.02403e-08, No Iterations 2
DICPCG:  Solving for p, Initial residual = 0.00348442, Final residual = 0.000170203, No Iterations 89
time step continuity errors : sum local = 7.03865e-11, global = -2.18866e-19, cumulative = -9.66653e-18
DICPCG:  Solving for p, Initial residual = 0.00029764, Final residual = 8.88324e-07, No Iterations 98
time step continuity errors : sum local = 3.7315e-13, global = 1.15806e-19, cumulative = -9.55073e-18
ExecutionTime = 1.947 s  ClockTime = 2 s

Time = 0.0095

Courant Number mean: 0.0500035 max: 0.141412
smoothSolver:  Solving for Ux, Initial residual = 0.00355582, Final residual = 2.64537e-06, No Iterations 1
smoothSolver:  Solving for Uy, Initial residual = 0.00543931, Final residual = 4.97024e-08, No Iterations 2
DICPCG:  Solving for p, Initial residual = 0.00340428, Final residual = 0.000160768, No Iterations 89
time step continuity errors : sum local = 6.79579e-11, global = 4.449e-19, cumulative = -9.10582e-18
DICPCG:  Solving for p, Initial residual = 0.000286684, Final residual = 8.14295e-07, No Iterations 98
time step continuity errors : sum local = 3.49308e-13, global = 1.59292e-19, cumulative = -8.94653e-18
ExecutionTime = 1.999 s  ClockTime = 2 s

Time = 0.00975

Courant Number mean: 0.0500036 max: 0.141318
smoothSolver:  Solving for Ux, Initial residual = 0.00349762, Final residual = 2.59747e-06, No Iterations 1
smoothSolver:  Solving for Uy, Initial residual = 0.00538766, Final residual = 4.91685e-08, No Iterations 2
DICPCG:  Solving for p, Initial residual = 0.00330105, Final residual = 0.000150479, No Iterations 89
time step continuity errors : sum local = 6.49469e-11, global = -1.29091e-19, cumulative = -9.07562e-18
DICPCG:  Solving for p, Initial residual = 0.000275414, Final residual = 9.94066e-07, No Iterations 97
time step continuity errors : sum local = 4.3455e-13, global = -8.38486e-20, cumulative = -9.15947e-18
ExecutionTime = 2.051 s  ClockTime = 2 s

Time = 0.01

Courant Number mean: 0.0500038 max: 0.141229
smoothSolver:  Solving for Ux, Initial residual = 0.00344098, Final residual = 2.5502e-06, No Iterations 1
smoothSolver:  Solving for Uy, Initial residual = 0.00533782, Final residual = 4.85778e-08, No Iterations 2
DICPCG:  Solving for p, Initial residual = 0.00322298, Final residual = 0.000141317, No Iterations 89
time step continuity errors : sum local = 6.21978e-11, global = -2.91288e-19, cumulative = -9.45076e-18
DICPCG:  Solving for p, Initial residual = 0.000268966, Final residual = 8.86976e-07, No Iterations 97
time step continuity errors : sum local = 3.95116e-13, global = -5.79324e-20, cumulative = -9.50869e-18
ExecutionTime = 2.097 s  ClockTime = 2 s

Time = 0.01025

Courant Number mean: 0.050004 max: 0.141147
smoothSolver:  Solving for Ux, Initial residual = 0.00338613, Final residual = 2.50459e-06, No Iterations 1
smoothSolver:  Solving for Uy, Initial residual = 0.00528523, Final residual = 4.79474e-08, No Iterations 2
DICPCG:  Solving for p, Initial residual = 0.00362314, Final residual = 0.000153291, No Iterations 88
time step continuity errors : sum local = 6.86376e-11, global = -1.48493e-19, cumulative = -9.65719e-18
DICPCG:  Solving for p, Initial residual = 0.000304375, Final residual = 9.69264e-07, No Iterations 96
time step continuity errors : sum local = 4.398e-13, global = 1.44494e-19, cumulative = -9.51269e-18
ExecutionTime = 2.157 s  ClockTime = 2 s

Time = 0.0105

Courant Number mean: 0.0500043 max: 0.141072
smoothSolver:  Solving for Ux, Initial residual = 0.00333484, Final residual = 2.46134e-06, No Iterations 1
smoothSolver:  Solving for Uy, Initial residual = 0.00523389, Final residual = 4.72844e-08, No Iterations 2
DICPCG:  Solving for p, Initial residual = 0.00391197, Final residual = 0.000193334, No Iterations 87
time step continuity errors : sum local = 8.81202e-11, global = 5.68152e-20, cumulative = -9.45588e-18
DICPCG:  Solving for p, Initial residual = 0.000321588, Final residual = 7.66438e-07, No Iterations 95
time step continuity errors : sum local = 3.5674e-13, global = 2.79958e-19, cumulative = -9.17592e-18
ExecutionTime = 2.197 s  ClockTime = 2 s

Time = 0.01075

Courant Number mean: 0.0500045 max: 0.141005
smoothSolver:  Solving for Ux, Initial residual = 0.00329136, Final residual = 2.42403e-06, No Iterations 1
smoothSolver:  Solving for Uy, Initial residual = 0.0051927, Final residual = 4.66688e-08, No Iterations 2
DICPCG:  Solving for p, Initial residual = 0.0039524, Final residual = 0.000175281, No Iterations 89
time step continuity errors : sum local = 8.18848e-11, global = 1.7745e-19, cumulative = -8.99847e-18
DICPCG:  Solving for p, Initial residual = 0.000311829, Final residual = 9.30812e-07, No Iterations 94
time step continuity errors : sum local = 4.46088e-13, global = -9.30128e-20, cumulative = -9.09148e-18
ExecutionTime = 2.26 s  ClockTime = 2 s

Time = 0.011

Courant Number mean: 0.0500047 max: 0.140946
smoothSolver:  Solving for Ux, Initial residual = 0.00327016, Final residual = 2.40427e-06, No Iterations 1
smoothSolver:  Solving for Uy, Initial residual = 0.00519065, Final residual = 4.63258e-08, No Iterations 2
DICPCG:  Solving for p, Initial residual = 0.00573092, Final residual = 0.000240901, No Iterations 89
time step continuity errors : sum local = 1.1613e-10, global = 9.5814e-20, cumulative = -8.99567e-18
DICPCG:  Solving for p, Initial residual = 0.000408211, Final residual = 7.79519e-07, No Iterations 95
time step continuity errors : sum local = 3.94393e-13, global = -8.68607e-20, cumulative = -9.08253e-18
ExecutionTime = 2.308 s  ClockTime = 2 s

Time = 0.01125

Courant Number mean: 0.050005 max: 0.140897
smoothSolver:  Solving for Ux, Initial residual = 0.00328557, Final residual = 2.41452e-06, No Iterations 1
smoothSolver:  Solving for Uy, Initial residual = 0.00525803, Final residual = 4.64727e-08, No Iterations 2
DICPCG:  Solving for p, Initial residual = 0.0067076, Final residual = 0.000233284, No Iterations 86
time step continuity errors : sum local = 1.17739e-10, global = -1.10735e-19, cumulative = -9.19326e-18
DICPCG:  Solving for p, Initial residual = 0.000514054, Final residual = 7.49714e-07, No Iterations 93
time step continuity errors : sum local = 3.67649e-13, global = -8.08284e-21, cumulative = -9.20135e-18
ExecutionTime = 2.339 s  ClockTime = 2 s

Time = 0.0115

Courant Number mean: 0.0500053 max: 0.140856
smoothSolver:  Solving for Ux, Initial residual = 0.00312406, Final residual = 2.28326e-06, No Iterations 1
smoothSolver:  Solving for Uy, Initial residual = 0.00494279, Final residual = 4.39534e-08, No Iterations 2
DICPCG:  Solving for p, Initial residual = 0.00655617, Final residual = 0.000261366, No Iterations 86
time step continuity errors : sum local = 1.26792e-10, global = 4.2594e-19, cumulative = -8.77541e-18
DICPCG:  Solving for p, Initial residual = 0.000451986, Final residual = 7.21906e-07, No Iterations 98
time step continuity errors : sum local = 3.33084e-13, global = -5.5277e-19, cumulative = -9.32818e-18
ExecutionTime = 2.377 s  ClockTime = 2 s

Time = 0.01175

Courant Number mean: 0.0500055 max: 0.140824
smoothSolver:  Solving for Ux, Initial residual = 0.00295847, Final residual = 2.14948e-06, No Iterations 1
smoothSolver:  Solving for Uy, Initial residual = 0.00461719, Final residual = 4.14131e-08, No Iterations 2
DICPCG:  Solving for p, Initial residual = 0.00886272, Final residual = 0.000371372, No Iterations 3
time step continuity errors : sum local = 1.70113e-10, global = -2.47528e-19, cumulative = -9.5757e-18
DICPCG:  Solving for p, Initial residual = 0.000586109, Final residual = 6.6838e-07, No Iterations 103
time step continuity errors : sum local = 3.05779e-13, global = -4.57663e-19, cumulative = -1.00334e-17
ExecutionTime = 2.393 s  ClockTime = 2 s

Time = 0.012

Courant Number mean: 0.0500058 max: 0.140803
smoothSolver:  Solving for Ux, Initial residual = 0.00289972, Final residual = 2.10153e-06, No Iterations 1
smoothSolver:  Solving for Uy, Initial residual = 0.004519, Final residual = 4.04826e-08, No Iterations 2
DICPCG:  Solving for p, Initial residual = 0.00419137, Final residual = 0.000195203, No Iterations 84
time step continuity errors : sum local = 9.00105e-11, global = -1.72788e-19, cumulative = -1.02062e-17
DICPCG:  Solving for p, Initial residual = 0.000350286, Final residual = 8.58377e-07, No Iterations 96
time step continuity errors : sum local = 3.89385e-13, global = -3.59606e-20, cumulative = -1.02421e-17
ExecutionTime = 2.439 s  ClockTime = 2 s

Time = 0.01225

Courant Number mean: 0.050006 max: 0.140792
smoothSolver:  Solving for Ux, Initial residual = 0.00281297, Final residual = 2.03338e-06, No Iterations 1
smoothSolver:  Solving for Uy, Initial residual = 0.00435722, Final residual = 3.91745e-08, No Iterations 2
DICPCG:  Solving for p, Initial residual = 0.00516252, Final residual = 0.000238792, No Iterations 34
time step continuity errors : sum local = 1.17935e-10, global = -9.70118e-20, cumulative = -1.03391e-17
DICPCG:  Solving for p, Initial residual = 0.000475246, Final residual = 9.59688e-07, No Iterations 98
time step continuity errors : sum local = 4.36691e-13, global = -1.62511e-19, cumulative = -1.05016e-17
ExecutionTime = 2.477 s  ClockTime = 2 s

Time = 0.0125

Courant Number mean: 0.0500062 max: 0.140792
smoothSolver:  Solving for Ux, Initial residual = 0.00274826, Final residual = 1.9822e-06, No Iterations 1
smoothSolver:  Solving for Uy, Initial residual = 0.00424638, Final residual = 3.82684e-08, No Iterations 2
DICPCG:  Solving for p, Initial residual = 0.00800929, Final residual = 0.000368938, No Iterations 3
time step continuity errors : sum local = 1.67076e-10, global = 1.40386e-19, cumulative = -1.03613e-17
DICPCG:  Solving for p, Initial residual = 0.000597184, Final residual = 9.64905e-07, No Iterations 102
time step continuity errors : sum local = 4.37995e-13, global = 5.12913e-20, cumulative = -1.031e-17
ExecutionTime = 2.492 s  ClockTime = 2 s

Time = 0.01275

Courant Number mean: 0.0500064 max: 0.140799
smoothSolver:  Solving for Ux, Initial residual = 0.00269554, Final residual = 1.94032e-06, No Iterations 1
smoothSolver:  Solving for Uy, Initial residual = 0.00416247, Final residual = 3.75351e-08, No Iterations 2
DICPCG:  Solving for p, Initial residual = 0.00802247, Final residual = 0.000356045, No Iterations 38
time step continuity errors : sum local = 1.91914e-10, global = -4.38688e-19, cumulative = -1.07486e-17
DICPCG:  Solving for p, Initial residual = 0.000646168, Final residual = 9.93031e-07, No Iterations 102
time step continuity errors : sum local = 4.55197e-13, global = 1.82833e-19, cumulative = -1.05658e-17
ExecutionTime = 2.524 s  ClockTime = 2 s

Time = 0.013

Courant Number mean: 0.0500067 max: 0.140817
smoothSolver:  Solving for Ux, Initial residual = 0.00265558, Final residual = 1.90823e-06, No Iterations 1
smoothSolver:  Solving for Uy, Initial residual = 0.00411601, Final residual = 3.70951e-08, No Iterations 2
DICPCG:  Solving for p, Initial residual = 0.00722377, Final residual = 0.000305565, No Iterations 90
time step continuity errors : sum local = 1.42154e-10, global = -3.24133e-19, cumulative = -1.08899e-17
DICPCG:  Solving for p, Initial residual = 0.000580954, Final residual = 8.32235e-07, No Iterations 102
time step continuity errors : sum local = 4.09136e-13, global = 3.61997e-19, cumulative = -1.0528e-17
ExecutionTime = 2.577 s  ClockTime = 2 s

Time = 0.01325

Courant Number mean: 0.0500069 max: 0.140848
smoothSolver:  Solving for Ux, Initial residual = 0.00269099, Final residual = 1.93664e-06, No Iterations 1
smoothSolver:  Solving for Uy, Initial residual = 0.00422986, Final residual = 3.79298e-08, No Iterations 2
DICPCG:  Solving for p, Initial residual = 0.00750564, Final residual = 0.000324948, No Iterations 93
time step continuity errors : sum local = 1.59088e-10, global = -3.58219e-20, cumulative = -1.05638e-17
DICPCG:  Solving for p, Initial residual = 0.000634102, Final residual = 7.54428e-07, No Iterations 100
time step continuity errors : sum local = 4.05312e-13, global = -2.88662e-19, cumulative = -1.08524e-17
ExecutionTime = 2.64 s  ClockTime = 2 s

Time = 0.0135

Courant Number mean: 0.0500073 max: 0.140896
smoothSolver:  Solving for Ux, Initial residual = 0.00282503, Final residual = 2.045e-06, No Iterations 1
smoothSolver:  Solving for Uy, Initial residual = 0.00454319, Final residual = 4.03423e-08, No Iterations 2
DICPCG:  Solving for p, Initial residual = 0.00559661, Final residual = 0.000276014, No Iterations 89
time step continuity errors : sum local = 1.49108e-10, global = 9.70658e-20, cumulative = -1.07554e-17
DICPCG:  Solving for p, Initial residual = 0.000515114, Final residual = 9.80742e-07, No Iterations 98
time step continuity errors : sum local = 5.47582e-13, global = -2.66495e-19, cumulative = -1.10219e-17
ExecutionTime = 2.693 s  ClockTime = 2 s

Time = 0.01375

Courant Number mean: 0.0500077 max: 0.140955
smoothSolver:  Solving for Ux, Initial residual = 0.00283695, Final residual = 2.05501e-06, No Iterations 1
smoothSolver:  Solving for Uy, Initial residual = 0.00459394, Final residual = 4.06208e-08, No Iterations 2
DICPCG:  Solving for p, Initial residual = 0.0102073, Final residual = 0.000395577, No Iterations 94
time step continuity errors : sum local = 2.19728e-10, global = -3.30459e-19, cumulative = -1.13523e-17
DICPCG:  Solving for p, Initial residual = 0.00125959, Final residual = 8.0305e-07, No Iterations 105
time step continuity errors : sum local = 3.48547e-13, global = 7.61513e-20, cumulative = -1.12762e-17
ExecutionTime = 2.739 s  ClockTime = 2 s

Time = 0.014

Courant Number mean: 0.0500079 max: 0.141003
smoothSolver:  Solving for Ux, Initial residual = 0.00237468, Final residual = 1.68419e-06, No Iterations 1
smoothSolver:  Solving for Uy, Initial residual = 0.00365552, Final residual = 9.74076e-06, No Iterations 1
DICPCG:  Solving for p, Initial residual = 0.0143425, Final residual = 0.000627005, No Iterations 94
time step continuity errors : sum local = 2.72274e-10, global = -3.27534e-19, cumulative = -1.16037e-17
DICPCG:  Solving for p, Initial residual = 0.00215609, Final residual = 9.87192e-07, No Iterations 106
time step continuity errors : sum local = 2.90092e-13, global = -1.98993e-19, cumulative = -1.18027e-17
ExecutionTime = 2.802 s  ClockTime = 2 s

Time = 0.01425

Courant Number mean: 0.0500079 max: 0.141037
smoothSolver:  Solving for Ux, Initial residual = 0.00187226, Final residual = 1.29155e-06, No Iterations 1
smoothSolver:  Solving for Uy, Initial residual = 0.00265674, Final residual = 7.31955e-06, No Iterations 1
DICPCG:  Solving for p, Initial residual = 0.00931515, Final residual = 0.000379519, No Iterations 86
time step continuity errors : sum local = 1.13591e-10, global = -8.1396e-19, cumulative = -1.26167e-17
DICPCG:  Solving for p, Initial residual = 0.000682273, Final residual = 9.44053e-07, No Iterations 100
time step continuity errors : sum local = 2.98512e-13, global = 4.32121e-19, cumulative = -1.21845e-17
ExecutionTime = 2.849 s  ClockTime = 2 s

Time = 0.0145

Courant Number mean: 0.0500079 max: 0.141076
smoothSolver:  Solving for Ux, Initial residual = 0.00189631, Final residual = 1.30818e-06, No Iterations 1
smoothSolver:  Solving for Uy, Initial residual = 0.00270492, Final residual = 7.38509e-06, No Iterations 1
DICPCG:  Solving for p, Initial residual = 0.010544, Final residual = 0.000522846, No Iterations 83
time step continuity errors : sum local = 1.6604e-10, global = 7.86967e-20, cumulative = -1.21058e-17
DICPCG:  Solving for p, Initial residual = 0.000793412, Final residual = 9.97421e-07, No Iterations 101
time step continuity errors : sum local = 3.26093e-13, global = -5.3743e-19, cumulative = -1.26433e-17
ExecutionTime = 2.896 s  ClockTime = 2 s

Time = 0.01475

Courant Number mean: 0.0500079 max: 0.141118
smoothSolver:  Solving for Ux, Initial residual = 0.0019032, Final residual = 1.31159e-06, No Iterations 1
smoothSolver:  Solving for Uy, Initial residual = 0.00273306, Final residual = 7.39369e-06, No Iterations 1
DICPCG:  Solving for p, Initial residual = 0.00867224, Final residual = 0.000390179, No Iterations 40
time step continuity errors : sum local = 1.598e-10, global = -5.31886e-20, cumulative = -1.26965e-17
DICPCG:  Solving for p, Initial residual = 0.000646908, Final residual = 8.53058e-07, No Iterations 98
time step continuity errors : sum local = 2.7985e-13, global = 7.50203e-21, cumulative = -1.2689e-17
ExecutionTime = 2.927 s  ClockTime = 3 s

Time = 0.015

Courant Number mean: 0.0500079 max: 0.141161
smoothSolver:  Solving for Ux, Initial residual = 0.00188836, Final residual = 1.29882e-06, No Iterations 1
smoothSolver:  Solving for Uy, Initial residual = 0.00272155, Final residual = 7.32068e-06, No Iterations 1
DICPCG:  Solving for p, Initial residual = 0.00564718, Final residual = 0.000281856, No Iterations 16
time step continuity errors : sum local = 9.91799e-11, global = -5.8565e-19, cumulative = -1.32746e-17
DICPCG:  Solving for p, Initial residual = 0.000457632, Final residual = 9.61632e-07, No Iterations 94
time step continuity errors : sum local = 3.20072e-13, global = 1.3937e-20, cumulative = -1.32607e-17
ExecutionTime = 2.958 s  ClockTime = 3 s

Time = 0.01525

Courant Number mean: 0.0500079 max: 0.141206
smoothSolver:  Solving for Ux, Initial residual = 0.00186013, Final residual = 1.27617e-06, No Iterations 1
smoothSolver:  Solving for Uy, Initial residual = 0.00268463, Final residual = 7.19713e-06, No Iterations 1
DICPCG:  Solving for p, Initial residual = 0.00534679, Final residual = 0.000238073, No Iterations 43
time step continuity errors : sum local = 9.0857e-11, global = -3.09646e-19, cumulative = -1.35703e-17
DICPCG:  Solving for p, Initial residual = 0.000436908, Final residual = 9.17651e-07, No Iterations 99
time step continuity errors : sum local = 3.063e-13, global = 2.05119e-19, cumulative = -1.33652e-17
ExecutionTime = 3.005 s  ClockTime = 3 s

Time = 0.0155

Courant Number mean: 0.0500079 max: 0.14125
smoothSolver:  Solving for Ux, Initial residual = 0.00182271, Final residual = 1.24682e-06, No Iterations 1
smoothSolver:  Solving for Uy, Initial residual = 0.00263034, Final residual = 7.03921e-06, No Iterations 1
DICPCG:  Solving for p, Initial residual = 0.00517982, Final residual = 0.000231245, No Iterations 44
time step continuity errors : sum local = 8.97726e-11, global = -1.42631e-19, cumulative = -1.35078e-17
DICPCG:  Solving for p, Initial residual = 0.000437259, Final residual = 8.81605e-07, No Iterations 99
time step continuity errors : sum local = 2.93009e-13, global = -8.81639e-20, cumulative = -1.3596e-17
ExecutionTime = 3.036 s  ClockTime = 3 s

Time = 0.01575

Courant Number mean: 0.0500079 max: 0.141293
smoothSolver:  Solving for Ux, Initial residual = 0.0017857, Final residual = 1.21786e-06, No Iterations 1
smoothSolver:  Solving for Uy, Initial residual = 0.00257769, Final residual = 6.89005e-06, No Iterations 1
DICPCG:  Solving for p, Initial residual = 0.00510936, Final residual = 0.000230298, No Iterations 41
time step continuity errors : sum local = 8.56935e-11, global = 8.33714e-20, cumulative = -1.35126e-17
DICPCG:  Solving for p, Initial residual = 0.000431339, Final residual = 9.53835e-07, No Iterations 97
time step continuity errors : sum local = 3.17286e-13, global = -2.74249e-20, cumulative = -1.354e-17
ExecutionTime = 3.068 s  ClockTime = 3 s

Time = 0.016

Courant Number mean: 0.050008 max: 0.141335
smoothSolver:  Solving for Ux, Initial residual = 0.00175173, Final residual = 1.19079e-06, No Iterations 1
smoothSolver:  Solving for Uy, Initial residual = 0.00253327, Final residual = 6.7634e-06, No Iterations 1
DICPCG:  Solving for p, Initial residual = 0.00503396, Final residual = 0.000243703, No Iterations 32
time step continuity errors : sum local = 8.27802e-11, global = -6.22733e-19, cumulative = -1.41628e-17
DICPCG:  Solving for p, Initial residual = 0.000433276, Final residual = 7.64406e-07, No Iterations 97
time step continuity errors : sum local = 2.53933e-13, global = -2.22481e-19, cumulative = -1.43853e-17
ExecutionTime = 3.099 s  ClockTime = 3 s

Time = 0.01625

Courant Number mean: 0.050008 max: 0.141374
smoothSolver:  Solving for Ux, Initial residual = 0.00172193, Final residual = 1.16681e-06, No Iterations 1
smoothSolver:  Solving for Uy, Initial residual = 0.00250172, Final residual = 6.68292e-06, No Iterations 1
DICPCG:  Solving for p, Initial residual = 0.00499021, Final residual = 0.000239311, No Iterations 14
time step continuity errors : sum local = 8.03809e-11, global = 3.08346e-19, cumulative = -1.40769e-17
DICPCG:  Solving for p, Initial residual = 0.000422458, Final residual = 9.44169e-07, No Iterations 92
time step continuity errors : sum local = 3.14256e-13, global = -1.66439e-19, cumulative = -1.42434e-17
ExecutionTime = 3.146 s  ClockTime = 3 s

Time = 0.0165

Courant Number mean: 0.050008 max: 0.14141
smoothSolver:  Solving for Ux, Initial residual = 0.0016975, Final residual = 1.14704e-06, No Iterations 1
smoothSolver:  Solving for Uy, Initial residual = 0.002486, Final residual = 6.62145e-06, No Iterations 1
DICPCG:  Solving for p, Initial residual = 0.00513653, Final residual = 0.000229628, No Iterations 39
time step continuity errors : sum local = 9.45335e-11, global = -3.037e-19, cumulative = -1.45471e-17
DICPCG:  Solving for p, Initial residual = 0.000420115, Final residual = 9.63144e-07, No Iterations 98
time step continuity errors : sum local = 3.21441e-13, global = -1.73301e-19, cumulative = -1.47204e-17
ExecutionTime = 3.224 s  ClockTime = 3 s

Time = 0.01675

Courant Number mean: 0.050008 max: 0.141443
smoothSolver:  Solving for Ux, Initial residual = 0.00167998, Final residual = 1.13281e-06, No Iterations 1
smoothSolver:  Solving for Uy, Initial residual = 0.00248103, Final residual = 6.585e-06, No Iterations 1
DICPCG:  Solving for p, Initial residual = 0.0057121, Final residual = 0.000241809, No Iterations 85
time step continuity errors : sum local = 8.15348e-11, global = -2.22561e-19, cumulative = -1.49429e-17
DICPCG:  Solving for p, Initial residual = 0.000438626, Final residual = 7.70764e-07, No Iterations 97
time step continuity errors : sum local = 2.65106e-13, global = -6.91613e-19, cumulative = -1.56345e-17
ExecutionTime = 3.286 s  ClockTime = 3 s

Time = 0.017

Courant Number mean: 0.050008 max: 0.141472
smoothSolver:  Solving for Ux, Initial residual = 0.00167105, Final residual = 1.12545e-06, No Iterations 1
smoothSolver:  Solving for Uy, Initial residual = 0.00249029, Final residual = 6.58346e-06, No Iterations 1
DICPCG:  Solving for p, Initial residual = 0.0062804, Final residual = 0.00028982, No Iterations 86
time step continuity errors : sum local = 9.97989e-11, global = -9.84102e-20, cumulative = -1.57329e-17
DICPCG:  Solving for p, Initial residual = 0.000488728, Final residual = 9.59077e-07, No Iterations 64
time step continuity errors : sum local = 3.76326e-13, global = -3.68079e-19, cumulative = -1.6101e-17
ExecutionTime = 3.349 s  ClockTime = 3 s

Time = 0.01725

Courant Number mean: 0.050008 max: 0.141497
smoothSolver:  Solving for Ux, Initial residual = 0.00168, Final residual = 1.13202e-06, No Iterations 1
smoothSolver:  Solving for Uy, Initial residual = 0.00253219, Final residual = 6.64917e-06, No Iterations 1
DICPCG:  Solving for p, Initial residual = 0.0085677, Final residual = 0.000370282, No Iterations 89
time step continuity errors : sum local = 1.33386e-10, global = -4.91472e-21, cumulative = -1.61059e-17
DICPCG:  Solving for p, Initial residual = 0.000610081, Final residual = 7.77693e-07, No Iterations 99
time step continuity errors : sum local = 3.04479e-13, global = 3.85433e-20, cumulative = -1.60674e-17
ExecutionTime = 3.442 s  ClockTime = 3 s

Time = 0.0175

Courant Number mean: 0.0500081 max: 0.141518
smoothSolver:  Solving for Ux, Initial residual = 0.00173597, Final residual = 1.17443e-06, No Iterations 1
smoothSolver:  Solving for Uy, Initial residual = 0.00266253, Final residual = 6.90893e-06, No Iterations 1
DICPCG:  Solving for p, Initial residual = 0.00900006, Final residual = 0.000366567, No Iterations 85
time step continuity errors : sum local = 1.44334e-10, global = -3.37361e-19, cumulative = -1.64047e-17
DICPCG:  Solving for p, Initial residual = 0.000619163, Final residual = 7.8761e-07, No Iterations 95
time step continuity errors : sum local = 3.22616e-13, global = -6.08296e-19, cumulative = -1.7013e-17
ExecutionTime = 3.536 s  ClockTime = 3 s

Time = 0.01775

Courant Number mean: 0.0500083 max: 0.141534
smoothSolver:  Solving for Ux, Initial residual = 0.0017502, Final residual = 1.18532e-06, No Iterations 1
smoothSolver:  Solving for Uy, Initial residual = 0.00271333, Final residual = 6.96436e-06, No Iterations 1
DICPCG:  Solving for p, Initial residual = 0.00858689, Final residual = 0.000372418, No Iterations 88
time step continuity errors : sum local = 1.52653e-10, global = -1.09292e-19, cumulative = -1.71223e-17
DICPCG:  Solving for p, Initial residual = 0.000782075, Final residual = 7.43519e-07, No Iterations 100
time step continuity errors : sum local = 2.64935e-13, global = -3.23415e-19, cumulative = -1.74458e-17
ExecutionTime = 3.599 s  ClockTime = 3 s

Time = 0.018

Courant Number mean: 0.0500083 max: 0.141542
smoothSolver:  Solving for Ux, Initial residual = 0.00158966, Final residual = 1.06127e-06, No Iterations 1
smoothSolver:  Solving for Uy, Initial residual = 0.00241179, Final residual = 6.28989e-06, No Iterations 1
DICPCG:  Solving for p, Initial residual = 0.00971705, Final residual = 0.000419259, No Iterations 85
time step continuity errors : sum local = 1.50322e-10, global = -3.46508e-19, cumulative = -1.77923e-17
DICPCG:  Solving for p, Initial residual = 0.000818301, Final residual = 6.86059e-07, No Iterations 99
time step continuity errors : sum local = 2.33445e-13, global = -6.91142e-19, cumulative = -1.84834e-17
ExecutionTime = 3.646 s  ClockTime = 3 s

Time = 0.01825

Courant Number mean: 0.0500083 max: 0.141544
smoothSolver:  Solving for Ux, Initial residual = 0.00151367, Final residual = 1.003e-06, No Iterations 1
smoothSolver:  Solving for Uy, Initial residual = 0.00228323, Final residual = 6.01209e-06, No Iterations 1
DICPCG:  Solving for p, Initial residual = 0.013359, Final residual = 0.000581315, No Iterations 38
time step continuity errors : sum local = 2.32407e-10, global = 1.02525e-19, cumulative = -1.83809e-17
DICPCG:  Solving for p, Initial residual = 0.00106582, Final residual = 8.24119e-07, No Iterations 99
time step continuity errors : sum local = 2.74679e-13, global = 1.55644e-19, cumulative = -1.82252e-17
ExecutionTime = 3.677 s  ClockTime = 3 s

Time = 0.0185

Courant Number mean: 0.0500084 max: 0.141541
smoothSolver:  Solving for Ux, Initial residual = 0.00150939, Final residual = 9.99054e-07, No Iterations 1
smoothSolver:  Solving for Uy, Initial residual = 0.00229407, Final residual = 6.02253e-06, No Iterations 1
DICPCG:  Solving for p, Initial residual = 0.0063517, Final residual = 0.00031161, No Iterations 13
time step continuity errors : sum local = 1.06551e-10, global = -2.72323e-19, cumulative = -1.84976e-17
DICPCG:  Solving for p, Initial residual = 0.000504225, Final residual = 9.02255e-07, No Iterations 97
time step continuity errors : sum local = 3.07346e-13, global = 8.32445e-20, cumulative = -1.84143e-17
ExecutionTime = 3.731 s  ClockTime = 3 s

Time = 0.01875

Courant Number mean: 0.0500084 max: 0.141532
smoothSolver:  Solving for Ux, Initial residual = 0.00148579, Final residual = 9.81219e-07, No Iterations 1
smoothSolver:  Solving for Uy, Initial residual = 0.00226511, Final residual = 5.95114e-06, No Iterations 1
DICPCG:  Solving for p, Initial residual = 0.00636581, Final residual = 0.000278102, No Iterations 88
time step continuity errors : sum local = 9.42199e-11, global = -5.55156e-19, cumulative = -1.89695e-17
DICPCG:  Solving for p, Initial residual = 0.000515081, Final residual = 9.16339e-07, No Iterations 99
time step continuity errors : sum local = 3.18778e-13, global = -1.22369e-19, cumulative = -1.90918e-17
ExecutionTime = 3.856 s  ClockTime = 3 s

Time = 0.019

Courant Number mean: 0.0500084 max: 0.141519
smoothSolver:  Solving for Ux, Initial residual = 0.00148451, Final residual = 9.8036e-07, No Iterations 1
smoothSolver:  Solving for Uy, Initial residual = 0.00227668, Final residual = 5.96874e-06, No Iterations 1
DICPCG:  Solving for p, Initial residual = 0.0064355, Final residual = 0.000308298, No Iterations 89
time step continuity errors : sum local = 1.07379e-10, global = -3.7835e-19, cumulative = -1.94702e-17
DICPCG:  Solving for p, Initial residual = 0.000539009, Final residual = 7.48558e-07, No Iterations 101
time step continuity errors : sum local = 2.71004e-13, global = -5.67188e-19, cumulative = -2.00374e-17
ExecutionTime = 3.914 s  ClockTime = 4 s

Time = 0.01925

Courant Number mean: 0.0500085 max: 0.141503
smoothSolver:  Solving for Ux, Initial residual = 0.00149653, Final residual = 9.89458e-07, No Iterations 1
smoothSolver:  Solving for Uy, Initial residual = 0.00231346, Final residual = 6.04231e-06, No Iterations 1
DICPCG:  Solving for p, Initial residual = 0.00567055, Final residual = 0.000282514, No Iterations 32
time step continuity errors : sum local = 1.06815e-10, global = -1.56376e-19, cumulative = -2.01937e-17
DICPCG:  Solving for p, Initial residual = 0.000488386, Final residual = 8.7452e-07, No Iterations 96
time step continuity errors : sum local = 3.16326e-13, global = 1.93458e-19, cumulative = -2.00003e-17
ExecutionTime = 3.956 s  ClockTime = 4 s

Time = 0.0195

Courant Number mean: 0.0500086 max: 0.14148
smoothSolver:  Solving for Ux, Initial residual = 0.00147367, Final residual = 9.72287e-07, No Iterations 1
smoothSolver:  Solving for Uy, Initial residual = 0.00228426, Final residual = 5.95674e-06, No Iterations 1
DICPCG:  Solving for p, Initial residual = 0.00683863, Final residual = 0.000275514, No Iterations 83
time step continuity errors : sum local = 9.98796e-11, global = -2.27152e-19, cumulative = -2.02274e-17
DICPCG:  Solving for p, Initial residual = 0.000540764, Final residual = 8.31788e-07, No Iterations 97
time step continuity errors : sum local = 2.95317e-13, global = -5.09792e-19, cumulative = -2.07372e-17
ExecutionTime = 4.018 s  ClockTime = 4 s

Time = 0.01975

Courant Number mean: 0.0500086 max: 0.141451
smoothSolver:  Solving for Ux, Initial residual = 0.00143823, Final residual = 9.45943e-07, No Iterations 1
smoothSolver:  Solving for Uy, Initial residual = 0.00223177, Final residual = 5.81969e-06, No Iterations 1
DICPCG:  Solving for p, Initial residual = 0.00629224, Final residual = 0.000270831, No Iterations 37
time step continuity errors : sum local = 1.05169e-10, global = -2.82851e-20, cumulative = -2.07655e-17
DICPCG:  Solving for p, Initial residual = 0.000518842, Final residual = 8.07898e-07, No Iterations 98
time step continuity errors : sum local = 2.87646e-13, global = 3.31141e-19, cumulative = -2.04344e-17
ExecutionTime = 4.069 s  ClockTime = 4 s

Time = 0.02

Courant Number mean: 0.0500087 max: 0.141417
smoothSolver:  Solving for Ux, Initial residual = 0.00142349, Final residual = 9.34823e-07, No Iterations 1
smoothSolver:  Solving for Uy, Initial residual = 0.00222187, Final residual = 5.78457e-06, No Iterations 1
DICPCG:  Solving for p, Initial residual = 0.00765725, Final residual = 0.000364363, No Iterations 88
time step continuity errors : sum local = 1.30857e-10, global = 2.59566e-20, cumulative = -2.04084e-17
DICPCG:  Solving for p, Initial residual = 0.000706465, Final residual = 8.4098e-07, No Iterations 98
time step continuity errors : sum local = 2.82978e-13, global = 1.18016e-19, cumulative = -2.02904e-17
ExecutionTime = 4.145 s  ClockTime = 4 s

Time = 0.02025

Courant Number mean: 0.0500087 max: 0.141375
smoothSolver:  Solving for Ux, Initial residual = 0.00135591, Final residual = 8.84532e-07, No Iterations 1
smoothSolver:  Solving for Uy, Initial residual = 0.00211248, Final residual = 5.52317e-06, No Iterations 1
DICPCG:  Solving for p, Initial residual = 0.00746161, Final residual = 0.000319842, No Iterations 88
time step continuity errors : sum local = 1.08453e-10, global = -1.94645e-19, cumulative = -2.04851e-17
DICPCG:  Solving for p, Initial residual = 0.000583575, Final residual = 8.74369e-07, No Iterations 100
time step continuity errors : sum local = 3.04881e-13, global = -5.64686e-19, cumulative = -2.10497e-17
ExecutionTime = 4.214 s  ClockTime = 4 s

Time = 0.0205

Courant Number mean: 0.0500087 max: 0.14133
smoothSolver:  Solving for Ux, Initial residual = 0.00136227, Final residual = 8.89078e-07, No Iterations 1
smoothSolver:  Solving for Uy, Initial residual = 0.0021467, Final residual = 5.59313e-06, No Iterations 1
DICPCG:  Solving for p, Initial residual = 0.00998596, Final residual = 0.000431938, No Iterations 88
time step continuity errors : sum local = 1.5187e-10, global = -4.35069e-19, cumulative = -2.14848e-17
DICPCG:  Solving for p, Initial residual = 0.000778217, Final residual = 9.3425e-07, No Iterations 101
time step continuity errors : sum local = 3.44269e-13, global = -2.18934e-20, cumulative = -2.15067e-17
ExecutionTime = 4.267 s  ClockTime = 4 s

Time = 0.02075

Courant Number mean: 0.0500088 max: 0.141284
smoothSolver:  Solving for Ux, Initial residual = 0.00137884, Final residual = 9.01046e-07, No Iterations 1
smoothSolver:  Solving for Uy, Initial residual = 0.0021993, Final residual = 5.71304e-06, No Iterations 1
DICPCG:  Solving for p, Initial residual = 0.0105865, Final residual = 0.000445427, No Iterations 89
time step continuity errors : sum local = 1.63398e-10, global = 2.91406e-20, cumulative = -2.14776e-17
DICPCG:  Solving for p, Initial residual = 0.000792727, Final residual = 8.74085e-07, No Iterations 99
time step continuity errors : sum local = 3.37329e-13, global = 7.67685e-19, cumulative = -2.07099e-17
ExecutionTime = 4.314 s  ClockTime = 4 s

Time = 0.021

Courant Number mean: 0.0500089 max: 0.141237
smoothSolver:  Solving for Ux, Initial residual = 0.00140817, Final residual = 9.2263e-07, No Iterations 1
smoothSolver:  Solving for Uy, Initial residual = 0.00227947, Final residual = 5.90235e-06, No Iterations 1
DICPCG:  Solving for p, Initial residual = 0.0128707, Final residual = 0.000628049, No Iterations 88
time step continuity errors : sum local = 2.42779e-10, global = 7.0008e-19, cumulative = -2.00098e-17
DICPCG:  Solving for p, Initial residual = 0.000944802, Final residual = 8.5053e-07, No Iterations 100
time step continuity errors : sum local = 3.4957e-13, global = -4.02302e-19, cumulative = -2.04121e-17
ExecutionTime = 4.366 s  ClockTime = 4 s

Time = 0.02125

Courant Number mean: 0.050009 max: 0.141189
smoothSolver:  Solving for Ux, Initial residual = 0.00144712, Final residual = 9.52238e-07, No Iterations 1
smoothSolver:  Solving for Uy, Initial residual = 0.0023827, Final residual = 6.15895e-06, No Iterations 1
DICPCG:  Solving for p, Initial residual = 0.0117078, Final residual = 0.000420775, No Iterations 88
time step continuity errors : sum local = 1.73087e-10, global = -3.60956e-20, cumulative = -2.04482e-17
DICPCG:  Solving for p, Initial residual = 0.00102806, Final residual = 9.12857e-07, No Iterations 99
time step continuity errors : sum local = 3.20232e-13, global = 6.84646e-20, cumulative = -2.03797e-17
ExecutionTime = 4.445 s  ClockTime = 4 s

Time = 0.0215

Courant Number mean: 0.0500091 max: 0.141138
smoothSolver:  Solving for Ux, Initial residual = 0.00129527, Final residual = 8.37442e-07, No Iterations 1
smoothSolver:  Solving for Uy, Initial residual = 0.00208951, Final residual = 5.49289e-06, No Iterations 1
DICPCG:  Solving for p, Initial residual = 0.00855883, Final residual = 0.000306377, No Iterations 87
time step continuity errors : sum local = 1.08173e-10, global = -2.15984e-19, cumulative = -2.05957e-17
DICPCG:  Solving for p, Initial residual = 0.000587294, Final residual = 9.07009e-07, No Iterations 98
time step continuity errors : sum local = 3.51141e-13, global = -6.81699e-19, cumulative = -2.12774e-17
ExecutionTime = 4.52 s  ClockTime = 4 s

Time = 0.02175

Courant Number mean: 0.0500091 max: 0.141087
smoothSolver:  Solving for Ux, Initial residual = 0.00135351, Final residual = 8.80261e-07, No Iterations 1
smoothSolver:  Solving for Uy, Initial residual = 0.00221622, Final residual = 5.72394e-06, No Iterations 1
DICPCG:  Solving for p, Initial residual = 0.0105436, Final residual = 0.000450283, No Iterations 84
time step continuity errors : sum local = 1.7383e-10, global = -1.0831e-19, cumulative = -2.13857e-17
DICPCG:  Solving for p, Initial residual = 0.000746439, Final residual = 8.17618e-07, No Iterations 99
time step continuity errors : sum local = 3.237e-13, global = -9.5596e-20, cumulative = -2.14813e-17
ExecutionTime = 4.585 s  ClockTime = 4 s

Time = 0.022

Courant Number mean: 0.0500093 max: 0.141036
smoothSolver:  Solving for Ux, Initial residual = 0.00135881, Final residual = 8.83612e-07, No Iterations 1
smoothSolver:  Solving for Uy, Initial residual = 0.00224138, Final residual = 5.76334e-06, No Iterations 1
DICPCG:  Solving for p, Initial residual = 0.00865379, Final residual = 0.00036054, No Iterations 86
time step continuity errors : sum local = 1.42469e-10, global = 3.29654e-19, cumulative = -2.11517e-17
DICPCG:  Solving for p, Initial residual = 0.000618522, Final residual = 8.62264e-07, No Iterations 98
time step continuity errors : sum local = 3.60898e-13, global = 5.604e-20, cumulative = -2.10956e-17
ExecutionTime = 4.656 s  ClockTime = 4 s

Time = 0.02225

Courant Number mean: 0.0500094 max: 0.140987
smoothSolver:  Solving for Ux, Initial residual = 0.00139039, Final residual = 9.07155e-07, No Iterations 1
smoothSolver:  Solving for Uy, Initial residual = 0.00231705, Final residual = 5.90526e-06, No Iterations 1
DICPCG:  Solving for p, Initial residual = 0.00926124, Final residual = 0.000435863, No Iterations 86
time step continuity errors : sum local = 1.82292e-10, global = -1.78075e-19, cumulative = -2.12737e-17
DICPCG:  Solving for p, Initial residual = 0.000685664, Final residual = 8.55259e-07, No Iterations 96
time step continuity errors : sum local = 3.76298e-13, global = 2.92616e-19, cumulative = -2.09811e-17
ExecutionTime = 4.713 s  ClockTime = 4 s

Time = 0.0225

Courant Number mean: 0.0500096 max: 0.140941
smoothSolver:  Solving for Ux, Initial residual = 0.00141957, Final residual = 9.29403e-07, No Iterations 1
smoothSolver:  Solving for Uy, Initial residual = 0.0023867, Final residual = 6.04194e-06, No Iterations 1
DICPCG:  Solving for p, Initial residual = 0.00812912, Final residual = 0.000347565, No Iterations 93
time step continuity errors : sum local = 1.5349e-10, global = -4.18574e-20, cumulative = -2.10229e-17
DICPCG:  Solving for p, Initial residual = 0.000580485, Final residual = 8.69215e-07, No Iterations 99
time step continuity errors : sum local = 4.29602e-13, global = -1.79702e-19, cumulative = -2.12026e-17
ExecutionTime = 4.773 s  ClockTime = 4 s

Time = 0.02275

Courant Number mean: 0.0500099 max: 0.140901
smoothSolver:  Solving for Ux, Initial residual = 0.00151649, Final residual = 1.00496e-06, No Iterations 1
smoothSolver:  Solving for Uy, Initial residual = 0.0026032, Final residual = 6.53054e-06, No Iterations 1
DICPCG:  Solving for p, Initial residual = 0.00759215, Final residual = 0.000349807, No Iterations 92
time step continuity errors : sum local = 1.72573e-10, global = 1.69045e-20, cumulative = -2.11857e-17
DICPCG:  Solving for p, Initial residual = 0.000752849, Final residual = 7.19022e-07, No Iterations 101
time step continuity errors : sum local = 3.16162e-13, global = 4.04516e-20, cumulative = -2.11453e-17
ExecutionTime = 4.835 s  ClockTime = 4 s

Time = 0.023

Courant Number mean: 0.0500101 max: 0.14086
smoothSolver:  Solving for Ux, Initial residual = 0.00138229, Final residual = 9.0114e-07, No Iterations 1
smoothSolver:  Solving for Uy, Initial residual = 0.00232027, Final residual = 5.855e-06, No Iterations 1
DICPCG:  Solving for p, Initial residual = 0.00597547, Final residual = 0.000260874, No Iterations 85
time step continuity errors : sum local = 1.14077e-10, global = -2.84993e-19, cumulative = -2.14303e-17
DICPCG:  Solving for p, Initial residual = 0.000496937, Final residual = 8.17187e-07, No Iterations 98
time step continuity errors : sum local = 3.47377e-13, global = 1.96415e-20, cumulative = -2.14106e-17
ExecutionTime = 4.894 s  ClockTime = 4 s

Time = 0.02325

Courant Number mean: 0.0500102 max: 0.140822
smoothSolver:  Solving for Ux, Initial residual = 0.0013402, Final residual = 8.69646e-07, No Iterations 1
smoothSolver:  Solving for Uy, Initial residual = 0.00223855, Final residual = 5.65741e-06, No Iterations 1
DICPCG:  Solving for p, Initial residual = 0.00538922, Final residual = 0.000252619, No Iterations 44
time step continuity errors : sum local = 1.33911e-10, global = -4.89141e-20, cumulative = -2.14596e-17
DICPCG:  Solving for p, Initial residual = 0.000457357, Final residual = 9.39224e-07, No Iterations 98
time step continuity errors : sum local = 4.01478e-13, global = -2.93823e-19, cumulative = -2.17534e-17
ExecutionTime = 4.933 s  ClockTime = 5 s

Time = 0.0235

Courant Number mean: 0.0500104 max: 0.140789
smoothSolver:  Solving for Ux, Initial residual = 0.00133483, Final residual = 8.66345e-07, No Iterations 1
smoothSolver:  Solving for Uy, Initial residual = 0.00223711, Final residual = 5.64557e-06, No Iterations 1
DICPCG:  Solving for p, Initial residual = 0.00544019, Final residual = 0.000240827, No Iterations 85
time step continuity errors : sum local = 1.03721e-10, global = -1.92684e-20, cumulative = -2.17726e-17
DICPCG:  Solving for p, Initial residual = 0.000453113, Final residual = 9.53564e-07, No Iterations 97
time step continuity errors : sum local = 4.17462e-13, global = -4.45669e-19, cumulative = -2.22183e-17
ExecutionTime = 4.984 s  ClockTime = 5 s

Time = 0.02375

Courant Number mean: 0.0500106 max: 0.140761
smoothSolver:  Solving for Ux, Initial residual = 0.0013315, Final residual = 8.64419e-07, No Iterations 1
smoothSolver:  Solving for Uy, Initial residual = 0.00224235, Final residual = 5.64738e-06, No Iterations 1
DICPCG:  Solving for p, Initial residual = 0.00599607, Final residual = 0.000250113, No Iterations 85
time step continuity errors : sum local = 1.09446e-10, global = 1.34606e-19, cumulative = -2.20837e-17
DICPCG:  Solving for p, Initial residual = 0.000480856, Final residual = 8.54247e-07, No Iterations 98
time step continuity errors : sum local = 3.8038e-13, global = 8.62707e-20, cumulative = -2.19974e-17
ExecutionTime = 5.042 s  ClockTime = 5 s

Time = 0.024

Courant Number mean: 0.0500107 max: 0.140739
smoothSolver:  Solving for Ux, Initial residual = 0.00132951, Final residual = 8.63213e-07, No Iterations 1
smoothSolver:  Solving for Uy, Initial residual = 0.00225237, Final residual = 5.66421e-06, No Iterations 1
DICPCG:  Solving for p, Initial residual = 0.00623338, Final residual = 0.000263516, No Iterations 85
time step continuity errors : sum local = 1.17272e-10, global = 6.76442e-20, cumulative = -2.19298e-17
DICPCG:  Solving for p, Initial residual = 0.000512954, Final residual = 8.68185e-07, No Iterations 98
time step continuity errors : sum local = 3.94081e-13, global = -1.88839e-19, cumulative = -2.21186e-17
ExecutionTime = 5.095 s  ClockTime = 5 s

Time = 0.02425

Courant Number mean: 0.0500109 max: 0.140724
smoothSolver:  Solving for Ux, Initial residual = 0.0013296, Final residual = 8.63739e-07, No Iterations 1
smoothSolver:  Solving for Uy, Initial residual = 0.00226953, Final residual = 5.69499e-06, No Iterations 1
DICPCG:  Solving for p, Initial residual = 0.00636678, Final residual = 0.000300382, No Iterations 85
time step continuity errors : sum local = 1.36376e-10, global = 2.84717e-19, cumulative = -2.18339e-17
DICPCG:  Solving for p, Initial residual = 0.000552971, Final residual = 8.45358e-07, No Iterations 98
time step continuity errors : sum local = 3.94564e-13, global = -6.31598e-19, cumulative = -2.24655e-17
ExecutionTime = 5.166 s  ClockTime = 5 s

Time = 0.0245

Courant Number mean: 0.0500111 max: 0.140715
smoothSolver:  Solving for Ux, Initial residual = 0.00133407, Final residual = 8.67519e-07, No Iterations 1
smoothSolver:  Solving for Uy, Initial residual = 0.00229504, Final residual = 5.74594e-06, No Iterations 1
DICPCG:  Solving for p, Initial residual = 0.00839036, Final residual = 0.00040254, No Iterations 85
time step continuity errors : sum local = 1.87877e-10, global = -5.06894e-20, cumulative = -2.25162e-17
DICPCG:  Solving for p, Initial residual = 0.000738414, Final residual = 8.10172e-07, No Iterations 100
time step continuity errors : sum local = 3.92253e-13, global = 3.17473e-19, cumulative = -2.21987e-17
ExecutionTime = 5.229 s  ClockTime = 5 s

Time = 0.02475

Courant Number mean: 0.0500114 max: 0.140715
smoothSolver:  Solving for Ux, Initial residual = 0.00134772, Final residual = 8.78155e-07, No Iterations 1
smoothSolver:  Solving for Uy, Initial residual = 0.00233868, Final residual = 5.84417e-06, No Iterations 1
DICPCG:  Solving for p, Initial residual = 0.00799686, Final residual = 0.000385517, No Iterations 88
time step continuity errors : sum local = 1.87036e-10, global = -3.04363e-19, cumulative = -2.25031e-17
DICPCG:  Solving for p, Initial residual = 0.000673512, Final residual = 9.9262e-07, No Iterations 99
time step continuity errors : sum local = 5.11732e-13, global = 8.60494e-20, cumulative = -2.2417e-17
ExecutionTime = 5.282 s  ClockTime = 5 s

Time = 0.025

Courant Number mean: 0.0500117 max: 0.140725
smoothSolver:  Solving for Ux, Initial residual = 0.00139319, Final residual = 9.13575e-07, No Iterations 1
smoothSolver:  Solving for Uy, Initial residual = 0.00244782, Final residual = 6.09024e-06, No Iterations 1
DICPCG:  Solving for p, Initial residual = 0.00888189, Final residual = 0.000346463, No Iterations 86
time step continuity errors : sum local = 1.78189e-10, global = -1.92863e-19, cumulative = -2.26099e-17
DICPCG:  Solving for p, Initial residual = 0.000640543, Final residual = 9.2243e-07, No Iterations 92
time step continuity errors : sum local = 5.10443e-13, global = 2.78516e-19, cumulative = -2.23314e-17
ExecutionTime = 5.33 s  ClockTime = 5 s

Time = 0.02525

Courant Number mean: 0.050012 max: 0.140744
smoothSolver:  Solving for Ux, Initial residual = 0.00144566, Final residual = 9.55551e-07, No Iterations 1
smoothSolver:  Solving for Uy, Initial residual = 0.00256684, Final residual = 6.33462e-06, No Iterations 1
DICPCG:  Solving for p, Initial residual = 0.0104023, Final residual = 0.000403215, No Iterations 85
time step continuity errors : sum local = 2.21716e-10, global = 8.66399e-20, cumulative = -2.22447e-17
DICPCG:  Solving for p, Initial residual = 0.000746765, Final residual = 9.18932e-07, No Iterations 100
time step continuity errors : sum local = 5.31183e-13, global = -2.21131e-21, cumulative = -2.2247e-17
ExecutionTime = 5.398 s  ClockTime = 5 s

Time = 0.0255

Courant Number mean: 0.0500124 max: 0.140772
smoothSolver:  Solving for Ux, Initial residual = 0.00148771, Final residual = 9.90175e-07, No Iterations 1
smoothSolver:  Solving for Uy, Initial residual = 0.00265905, Final residual = 6.51846e-06, No Iterations 1
DICPCG:  Solving for p, Initial residual = 0.00674857, Final residual = 0.00026526, No Iterations 91
time step continuity errors : sum local = 1.54118e-10, global = -4.2917e-19, cumulative = -2.26761e-17
DICPCG:  Solving for p, Initial residual = 0.000572753, Final residual = 7.8457e-07, No Iterations 99
time step continuity errors : sum local = 4.24634e-13, global = -2.49748e-19, cumulative = -2.29259e-17
ExecutionTime = 5.429 s  ClockTime = 5 s

Time = 0.02575

Courant Number mean: 0.0500128 max: 0.140806
smoothSolver:  Solving for Ux, Initial residual = 0.00140535, Final residual = 9.24254e-07, No Iterations 1
smoothSolver:  Solving for Uy, Initial residual = 0.00250245, Final residual = 6.22747e-06, No Iterations 1
DICPCG:  Solving for p, Initial residual = 0.00903447, Final residual = 0.000380189, No Iterations 93
time step continuity errors : sum local = 2.06053e-10, global = -3.69674e-19, cumulative = -2.32955e-17
DICPCG:  Solving for p, Initial residual = 0.000925479, Final residual = 6.96044e-07, No Iterations 104
time step continuity errors : sum local = 3.25518e-13, global = -6.87455e-20, cumulative = -2.33643e-17
ExecutionTime = 5.476 s  ClockTime = 5 s

Time = 0.026

Courant Number mean: 0.050013 max: 0.140834
smoothSolver:  Solving for Ux, Initial residual = 0.00124979, Final residual = 8.03649e-07, No Iterations 1
smoothSolver:  Solving for Uy, Initial residual = 0.00217629, Final residual = 5.41176e-06, No Iterations 1
DICPCG:  Solving for p, Initial residual = 0.0117315, Final residual = 0.000529433, No Iterations 91
time step continuity errors : sum local = 2.47955e-10, global = 1.25346e-19, cumulative = -2.32389e-17
DICPCG:  Solving for p, Initial residual = 0.00111303, Final residual = 7.62518e-07, No Iterations 104
time step continuity errors : sum local = 3.11195e-13, global = -2.60176e-19, cumulative = -2.34991e-17
ExecutionTime = 5.554 s  ClockTime = 5 s

Time = 0.02625

Courant Number mean: 0.0500132 max: 0.140857
smoothSolver:  Solving for Ux, Initial residual = 0.00112837, Final residual = 7.12337e-07, No Iterations 1
smoothSolver:  Solving for Uy, Initial residual = 0.00192667, Final residual = 4.77503e-06, No Iterations 1
DICPCG:  Solving for p, Initial residual = 0.00799847, Final residual = 0.000383961, No Iterations 86
time step continuity errors : sum local = 1.56647e-10, global = -6.09137e-19, cumulative = -2.41083e-17
DICPCG:  Solving for p, Initial residual = 0.000718168, Final residual = 7.70628e-07, No Iterations 101
time step continuity errors : sum local = 2.93206e-13, global = -2.18651e-19, cumulative = -2.43269e-17
ExecutionTime = 5.617 s  ClockTime = 5 s

Time = 0.0265

Courant Number mean: 0.0500132 max: 0.140882
smoothSolver:  Solving for Ux, Initial residual = 0.0010657, Final residual = 6.65817e-07, No Iterations 1
smoothSolver:  Solving for Uy, Initial residual = 0.00180464, Final residual = 4.48108e-06, No Iterations 1
DICPCG:  Solving for p, Initial residual = 0.0068617, Final residual = 0.000331355, No Iterations 35
time step continuity errors : sum local = 1.37874e-10, global = -5.00487e-19, cumulative = -2.48274e-17
DICPCG:  Solving for p, Initial residual = 0.000564967, Final residual = 9.5181e-07, No Iterations 98
time step continuity errors : sum local = 3.61498e-13, global = -2.59279e-20, cumulative = -2.48533e-17
ExecutionTime = 5.664 s  ClockTime = 5 s

Time = 0.02675

Courant Number mean: 0.0500133 max: 0.14091
smoothSolver:  Solving for Ux, Initial residual = 0.00105191, Final residual = 6.55628e-07, No Iterations 1
smoothSolver:  Solving for Uy, Initial residual = 0.00177625, Final residual = 4.40975e-06, No Iterations 1
DICPCG:  Solving for p, Initial residual = 0.00725152, Final residual = 0.000355644, No Iterations 41
time step continuity errors : sum local = 1.67186e-10, global = -2.84011e-20, cumulative = -2.48817e-17
DICPCG:  Solving for p, Initial residual = 0.000601354, Final residual = 8.31302e-07, No Iterations 98
time step continuity errors : sum local = 3.17769e-13, global = -1.59646e-19, cumulative = -2.50414e-17
ExecutionTime = 5.736 s  ClockTime = 5 s

Time = 0.027

Courant Number mean: 0.0500134 max: 0.140942
smoothSolver:  Solving for Ux, Initial residual = 0.00105273, Final residual = 6.56178e-07, No Iterations 1
smoothSolver:  Solving for Uy, Initial residual = 0.00177467, Final residual = 4.39597e-06, No Iterations 1
DICPCG:  Solving for p, Initial residual = 0.008513, Final residual = 0.000366313, No Iterations 89
time step continuity errors : sum local = 1.41944e-10, global = 2.19357e-20, cumulative = -2.50194e-17
DICPCG:  Solving for p, Initial residual = 0.000774694, Final residual = 8.62539e-07, No Iterations 99
[...]
time step continuity errors : sum local = 5.49315e-13, global = -3.82968e-19, cumulative = -6.8178e-16
ExecutionTime = 133.638 s  ClockTime = 133 s

Time = 0.9935

Courant Number mean: 0.0500842 max: 0.141245
smoothSolver:  Solving for Ux, Initial residual = 1.05836e-05, Final residual = 5.56465e-09, No Iterations 1
smoothSolver:  Solving for Uy, Initial residual = 9.24084e-05, Final residual = 7.30248e-08, No Iterations 1
DICPCG:  Solving for p, Initial residual = 0.000682433, Final residual = 2.61065e-05, No Iterations 3
time step continuity errors : sum local = 1.67928e-11, global = 5.69353e-19, cumulative = -6.8121e-16
DICPCG:  Solving for p, Initial residual = 3.8072e-05, Final residual = 9.8523e-07, No Iterations 85
time step continuity errors : sum local = 6.25534e-13, global = 1.67482e-20, cumulative = -6.81193e-16
ExecutionTime = 133.669 s  ClockTime = 133 s

Time = 0.99375

Courant Number mean: 0.0500842 max: 0.141244
smoothSolver:  Solving for Ux, Initial residual = 1.06019e-05, Final residual = 5.58314e-09, No Iterations 1
smoothSolver:  Solving for Uy, Initial residual = 9.24614e-05, Final residual = 7.32436e-08, No Iterations 1
DICPCG:  Solving for p, Initial residual = 0.000695514, Final residual = 3.17309e-05, No Iterations 38
time step continuity errors : sum local = 2.32931e-11, global = 2.74899e-20, cumulative = -6.81166e-16
DICPCG:  Solving for p, Initial residual = 4.38014e-05, Final residual = 9.85664e-07, No Iterations 87
time step continuity errors : sum local = 6.29892e-13, global = 1.94525e-19, cumulative = -6.80971e-16
ExecutionTime = 133.699 s  ClockTime = 133 s

Time = 0.994

Courant Number mean: 0.0500843 max: 0.141244
smoothSolver:  Solving for Ux, Initial residual = 1.07596e-05, Final residual = 5.72623e-09, No Iterations 1
smoothSolver:  Solving for Uy, Initial residual = 9.28436e-05, Final residual = 7.38917e-08, No Iterations 1
DICPCG:  Solving for p, Initial residual = 0.000683406, Final residual = 3.41076e-05, No Iterations 27
time step continuity errors : sum local = 2.22941e-11, global = 1.87926e-19, cumulative = -6.80784e-16
DICPCG:  Solving for p, Initial residual = 4.46461e-05, Final residual = 9.97687e-07, No Iterations 82
time step continuity errors : sum local = 6.34574e-13, global = 3.23002e-19, cumulative = -6.80461e-16
ExecutionTime = 133.722 s  ClockTime = 133 s

Time = 0.99425

Courant Number mean: 0.0500843 max: 0.141244
smoothSolver:  Solving for Ux, Initial residual = 1.08028e-05, Final residual = 5.76688e-09, No Iterations 1
smoothSolver:  Solving for Uy, Initial residual = 9.296e-05, Final residual = 7.41896e-08, No Iterations 1
DICPCG:  Solving for p, Initial residual = 0.000688333, Final residual = 2.17127e-05, No Iterations 3
time step continuity errors : sum local = 1.4002e-11, global = -7.51932e-19, cumulative = -6.81212e-16
DICPCG:  Solving for p, Initial residual = 3.44077e-05, Final residual = 6.66159e-07, No Iterations 87
time step continuity errors : sum local = 4.24447e-13, global = 1.0133e-19, cumulative = -6.81111e-16
ExecutionTime = 133.745 s  ClockTime = 133 s

Time = 0.9945

Courant Number mean: 0.0500843 max: 0.141243
smoothSolver:  Solving for Ux, Initial residual = 1.07972e-05, Final residual = 5.76432e-09, No Iterations 1
smoothSolver:  Solving for Uy, Initial residual = 9.29591e-05, Final residual = 7.43312e-08, No Iterations 1
DICPCG:  Solving for p, Initial residual = 0.000700254, Final residual = 2.94544e-05, No Iterations 3
time step continuity errors : sum local = 1.89047e-11, global = -1.1271e-19, cumulative = -6.81224e-16
DICPCG:  Solving for p, Initial residual = 4.0383e-05, Final residual = 9.95713e-07, No Iterations 89
time step continuity errors : sum local = 6.32978e-13, global = 1.14789e-19, cumulative = -6.81109e-16
ExecutionTime = 133.776 s  ClockTime = 133 s

Time = 0.99475

Courant Number mean: 0.0500844 max: 0.141243
smoothSolver:  Solving for Ux, Initial residual = 1.07639e-05, Final residual = 5.73675e-09, No Iterations 1
smoothSolver:  Solving for Uy, Initial residual = 9.28992e-05, Final residual = 7.43918e-08, No Iterations 1
DICPCG:  Solving for p, Initial residual = 0.000711275, Final residual = 3.17965e-05, No Iterations 5
time step continuity errors : sum local = 2.03336e-11, global = 2.84107e-19, cumulative = -6.80825e-16
DICPCG:  Solving for p, Initial residual = 4.31212e-05, Final residual = 7.25281e-07, No Iterations 89
time step continuity errors : sum local = 4.60831e-13, global = 1.58415e-19, cumulative = -6.80667e-16
ExecutionTime = 133.8 s  ClockTime = 133 s

Time = 0.995

Courant Number mean: 0.0500844 max: 0.141243
smoothSolver:  Solving for Ux, Initial residual = 1.07138e-05, Final residual = 5.6943e-09, No Iterations 1
smoothSolver:  Solving for Uy, Initial residual = 9.28028e-05, Final residual = 7.43962e-08, No Iterations 1
DICPCG:  Solving for p, Initial residual = 0.000729835, Final residual = 3.61003e-05, No Iterations 14
time step continuity errors : sum local = 2.39269e-11, global = -4.13001e-19, cumulative = -6.8108e-16
DICPCG:  Solving for p, Initial residual = 4.73476e-05, Final residual = 9.67763e-07, No Iterations 82
time step continuity errors : sum local = 6.15013e-13, global = 3.37049e-20, cumulative = -6.81046e-16
ExecutionTime = 133.822 s  ClockTime = 133 s

Time = 0.99525

Courant Number mean: 0.0500844 max: 0.141243
smoothSolver:  Solving for Ux, Initial residual = 1.06497e-05, Final residual = 5.63867e-09, No Iterations 1
smoothSolver:  Solving for Uy, Initial residual = 9.26564e-05, Final residual = 7.43395e-08, No Iterations 1
DICPCG:  Solving for p, Initial residual = 0.00078237, Final residual = 3.55689e-05, No Iterations 80
time step continuity errors : sum local = 2.28718e-11, global = 4.91983e-19, cumulative = -6.80554e-16
DICPCG:  Solving for p, Initial residual = 4.74603e-05, Final residual = 8.84479e-07, No Iterations 21
time step continuity errors : sum local = 6.3085e-13, global = 1.43623e-19, cumulative = -6.8041e-16
ExecutionTime = 133.861 s  ClockTime = 133 s

Time = 0.9955

Courant Number mean: 0.0500845 max: 0.141243
smoothSolver:  Solving for Ux, Initial residual = 1.11266e-05, Final residual = 6.0662e-09, No Iterations 1
smoothSolver:  Solving for Uy, Initial residual = 9.37412e-05, Final residual = 7.59874e-08, No Iterations 1
DICPCG:  Solving for p, Initial residual = 0.000701406, Final residual = 3.14245e-05, No Iterations 36
time step continuity errors : sum local = 2.19791e-11, global = 2.35085e-19, cumulative = -6.80175e-16
DICPCG:  Solving for p, Initial residual = 4.22882e-05, Final residual = 9.88406e-07, No Iterations 81
time step continuity errors : sum local = 6.30663e-13, global = 1.81244e-19, cumulative = -6.79994e-16
ExecutionTime = 133.877 s  ClockTime = 133 s

Time = 0.99575

Courant Number mean: 0.0500845 max: 0.141242
smoothSolver:  Solving for Ux, Initial residual = 1.12273e-05, Final residual = 6.15802e-09, No Iterations 1
smoothSolver:  Solving for Uy, Initial residual = 9.39784e-05, Final residual = 7.64567e-08, No Iterations 1
DICPCG:  Solving for p, Initial residual = 0.000734072, Final residual = 3.62674e-05, No Iterations 35
time step continuity errors : sum local = 2.5351e-11, global = 3.59255e-19, cumulative = -6.79635e-16
DICPCG:  Solving for p, Initial residual = 4.72153e-05, Final residual = 8.97025e-07, No Iterations 88
time step continuity errors : sum local = 5.71356e-13, global = 9.54921e-20, cumulative = -6.79539e-16
ExecutionTime = 133.921 s  ClockTime = 134 s

Time = 0.996

Courant Number mean: 0.0500845 max: 0.141242
smoothSolver:  Solving for Ux, Initial residual = 1.1119e-05, Final residual = 6.06238e-09, No Iterations 1
smoothSolver:  Solving for Uy, Initial residual = 9.37329e-05, Final residual = 7.62817e-08, No Iterations 1
DICPCG:  Solving for p, Initial residual = 0.000700291, Final residual = 3.36517e-05, No Iterations 77
time step continuity errors : sum local = 2.14211e-11, global = 1.43569e-19, cumulative = -6.79396e-16
DICPCG:  Solving for p, Initial residual = 4.53123e-05, Final residual = 8.91233e-07, No Iterations 21
time step continuity errors : sum local = 6.42754e-13, global = -7.01725e-20, cumulative = -6.79466e-16
ExecutionTime = 133.951 s  ClockTime = 134 s

Time = 0.99625

Courant Number mean: 0.0500845 max: 0.141242
smoothSolver:  Solving for Ux, Initial residual = 1.08618e-05, Final residual = 5.83382e-09, No Iterations 1
smoothSolver:  Solving for Uy, Initial residual = 9.31614e-05, Final residual = 7.56324e-08, No Iterations 1
DICPCG:  Solving for p, Initial residual = 0.000718032, Final residual = 3.4452e-05, No Iterations 34
time step continuity errors : sum local = 2.38433e-11, global = 5.23183e-19, cumulative = -6.78943e-16
DICPCG:  Solving for p, Initial residual = 4.62375e-05, Final residual = 8.84156e-07, No Iterations 88
time step continuity errors : sum local = 5.61789e-13, global = 1.62844e-19, cumulative = -6.7878e-16
ExecutionTime = 133.971 s  ClockTime = 134 s

Time = 0.9965

Courant Number mean: 0.0500846 max: 0.141242
smoothSolver:  Solving for Ux, Initial residual = 1.07693e-05, Final residual = 5.75231e-09, No Iterations 1
smoothSolver:  Solving for Uy, Initial residual = 9.2967e-05, Final residual = 7.54876e-08, No Iterations 1
DICPCG:  Solving for p, Initial residual = 0.000694421, Final residual = 3.27309e-05, No Iterations 31
time step continuity errors : sum local = 2.17079e-11, global = 1.34338e-19, cumulative = -6.78645e-16
DICPCG:  Solving for p, Initial residual = 4.40761e-05, Final residual = 9.15872e-07, No Iterations 86
time step continuity errors : sum local = 5.81778e-13, global = -4.22827e-20, cumulative = -6.78688e-16
ExecutionTime = 134.01 s  ClockTime = 134 s

Time = 0.99675

Courant Number mean: 0.0500846 max: 0.141242
smoothSolver:  Solving for Ux, Initial residual = 1.082e-05, Final residual = 5.79901e-09, No Iterations 1
smoothSolver:  Solving for Uy, Initial residual = 9.30744e-05, Final residual = 7.57647e-08, No Iterations 1
DICPCG:  Solving for p, Initial residual = 0.00068404, Final residual = 3.19405e-05, No Iterations 32
time step continuity errors : sum local = 2.12856e-11, global = 6.40148e-20, cumulative = -6.78624e-16
DICPCG:  Solving for p, Initial residual = 4.30443e-05, Final residual = 8.64712e-07, No Iterations 86
time step continuity errors : sum local = 5.49901e-13, global = 4.36042e-19, cumulative = -6.78188e-16
ExecutionTime = 134.036 s  ClockTime = 134 s

Time = 0.997

Courant Number mean: 0.0500846 max: 0.141241
smoothSolver:  Solving for Ux, Initial residual = 1.08763e-05, Final residual = 5.85073e-09, No Iterations 1
smoothSolver:  Solving for Uy, Initial residual = 9.32013e-05, Final residual = 7.60698e-08, No Iterations 1
DICPCG:  Solving for p, Initial residual = 0.000685097, Final residual = 3.22907e-05, No Iterations 8
time step continuity errors : sum local = 2.06458e-11, global = -3.39496e-20, cumulative = -6.78222e-16
DICPCG:  Solving for p, Initial residual = 4.4325e-05, Final residual = 8.1321e-07, No Iterations 86
time step continuity errors : sum local = 5.18561e-13, global = -1.80983e-20, cumulative = -6.7824e-16
ExecutionTime = 134.052 s  ClockTime = 134 s

Time = 0.99725

Courant Number mean: 0.0500847 max: 0.141241
smoothSolver:  Solving for Ux, Initial residual = 1.09168e-05, Final residual = 5.88826e-09, No Iterations 1
smoothSolver:  Solving for Uy, Initial residual = 9.32914e-05, Final residual = 7.63107e-08, No Iterations 1
DICPCG:  Solving for p, Initial residual = 0.000768257, Final residual = 3.77553e-05, No Iterations 9
time step continuity errors : sum local = 2.43453e-11, global = -1.27982e-19, cumulative = -6.78368e-16
DICPCG:  Solving for p, Initial residual = 4.86992e-05, Final residual = 8.39666e-07, No Iterations 84
time step continuity errors : sum local = 5.35219e-13, global = -6.98613e-19, cumulative = -6.79066e-16
ExecutionTime = 134.089 s  ClockTime = 134 s

Time = 0.9975

Courant Number mean: 0.0500847 max: 0.141241
smoothSolver:  Solving for Ux, Initial residual = 1.09678e-05, Final residual = 5.93552e-09, No Iterations 1
smoothSolver:  Solving for Uy, Initial residual = 9.34308e-05, Final residual = 7.66104e-08, No Iterations 1
DICPCG:  Solving for p, Initial residual = 0.000706069, Final residual = 3.14305e-05, No Iterations 78
time step continuity errors : sum local = 2.00906e-11, global = 2.55006e-19, cumulative = -6.78811e-16
DICPCG:  Solving for p, Initial residual = 4.20755e-05, Final residual = 8.1574e-07, No Iterations 21
time step continuity errors : sum local = 5.76094e-13, global = -3.08098e-19, cumulative = -6.79119e-16
ExecutionTime = 134.12 s  ClockTime = 134 s

Time = 0.99775

Courant Number mean: 0.0500847 max: 0.141241
smoothSolver:  Solving for Ux, Initial residual = 1.12501e-05, Final residual = 6.1896e-09, No Iterations 1
smoothSolver:  Solving for Uy, Initial residual = 9.40642e-05, Final residual = 7.76021e-08, No Iterations 1
DICPCG:  Solving for p, Initial residual = 0.000729476, Final residual = 3.33933e-05, No Iterations 38
time step continuity errors : sum local = 2.43662e-11, global = 3.88835e-19, cumulative = -6.7873e-16
DICPCG:  Solving for p, Initial residual = 4.53511e-05, Final residual = 9.0078e-07, No Iterations 86
time step continuity errors : sum local = 5.77409e-13, global = -4.73913e-19, cumulative = -6.79204e-16
ExecutionTime = 134.137 s  ClockTime = 134 s

Time = 0.998

Courant Number mean: 0.0500848 max: 0.141241
smoothSolver:  Solving for Ux, Initial residual = 1.14013e-05, Final residual = 6.32709e-09, No Iterations 1
smoothSolver:  Solving for Uy, Initial residual = 9.44192e-05, Final residual = 7.81919e-08, No Iterations 1
DICPCG:  Solving for p, Initial residual = 0.000756212, Final residual = 3.7345e-05, No Iterations 35
time step continuity errors : sum local = 2.58937e-11, global = -2.8079e-20, cumulative = -6.79232e-16
DICPCG:  Solving for p, Initial residual = 4.86652e-05, Final residual = 9.75425e-07, No Iterations 82
time step continuity errors : sum local = 6.22744e-13, global = -4.98685e-21, cumulative = -6.79237e-16
ExecutionTime = 134.178 s  ClockTime = 134 s

Time = 0.99825

Courant Number mean: 0.0500848 max: 0.141241
smoothSolver:  Solving for Ux, Initial residual = 1.15054e-05, Final residual = 6.42205e-09, No Iterations 1
smoothSolver:  Solving for Uy, Initial residual = 9.46679e-05, Final residual = 7.86238e-08, No Iterations 1
DICPCG:  Solving for p, Initial residual = 0.000761189, Final residual = 3.45813e-05, No Iterations 34
time step continuity errors : sum local = 2.3716e-11, global = -5.88445e-19, cumulative = -6.79826e-16
DICPCG:  Solving for p, Initial residual = 4.71644e-05, Final residual = 8.93365e-07, No Iterations 85
time step continuity errors : sum local = 5.73237e-13, global = -6.61278e-20, cumulative = -6.79892e-16
ExecutionTime = 134.214 s  ClockTime = 134 s

Time = 0.9985

Courant Number mean: 0.0500848 max: 0.141241
smoothSolver:  Solving for Ux, Initial residual = 1.15878e-05, Final residual = 6.49783e-09, No Iterations 1
smoothSolver:  Solving for Uy, Initial residual = 9.48711e-05, Final residual = 7.9022e-08, No Iterations 1
DICPCG:  Solving for p, Initial residual = 0.000700535, Final residual = 3.09678e-05, No Iterations 34
time step continuity errors : sum local = 2.11926e-11, global = -6.1379e-19, cumulative = -6.80506e-16
DICPCG:  Solving for p, Initial residual = 4.3265e-05, Final residual = 7.39624e-07, No Iterations 81
time step continuity errors : sum local = 4.71723e-13, global = -9.81136e-21, cumulative = -6.80516e-16
ExecutionTime = 134.244 s  ClockTime = 134 s

Time = 0.99875

Courant Number mean: 0.0500849 max: 0.141241
smoothSolver:  Solving for Ux, Initial residual = 1.16582e-05, Final residual = 6.56334e-09, No Iterations 1
smoothSolver:  Solving for Uy, Initial residual = 9.50595e-05, Final residual = 7.93701e-08, No Iterations 1
DICPCG:  Solving for p, Initial residual = 0.000700058, Final residual = 3.36936e-05, No Iterations 33
time step continuity errors : sum local = 2.27972e-11, global = 1.00702e-19, cumulative = -6.80415e-16
DICPCG:  Solving for p, Initial residual = 4.45565e-05, Final residual = 9.8219e-07, No Iterations 79
time step continuity errors : sum local = 6.27631e-13, global = 2.79758e-19, cumulative = -6.80135e-16
ExecutionTime = 134.275 s  ClockTime = 134 s

Time = 0.999

Courant Number mean: 0.0500849 max: 0.141241
smoothSolver:  Solving for Ux, Initial residual = 1.17254e-05, Final residual = 6.62594e-09, No Iterations 1
smoothSolver:  Solving for Uy, Initial residual = 9.52451e-05, Final residual = 7.97219e-08, No Iterations 1
DICPCG:  Solving for p, Initial residual = 0.000708503, Final residual = 3.41635e-05, No Iterations 7
time step continuity errors : sum local = 2.17983e-11, global = -7.49804e-20, cumulative = -6.8021e-16
DICPCG:  Solving for p, Initial residual = 4.56343e-05, Final residual = 9.49893e-07, No Iterations 84
time step continuity errors : sum local = 6.06338e-13, global = -3.32225e-19, cumulative = -6.80542e-16
ExecutionTime = 134.289 s  ClockTime = 134 s

Time = 0.99925

Courant Number mean: 0.050085 max: 0.141241
smoothSolver:  Solving for Ux, Initial residual = 1.17698e-05, Final residual = 6.66872e-09, No Iterations 1
smoothSolver:  Solving for Uy, Initial residual = 9.5354e-05, Final residual = 7.99524e-08, No Iterations 1
DICPCG:  Solving for p, Initial residual = 0.000677991, Final residual = 3.35027e-05, No Iterations 3
time step continuity errors : sum local = 2.15195e-11, global = 1.65074e-20, cumulative = -6.80526e-16
DICPCG:  Solving for p, Initial residual = 4.32381e-05, Final residual = 8.90897e-07, No Iterations 87
time step continuity errors : sum local = 5.71948e-13, global = -5.60944e-19, cumulative = -6.81087e-16
ExecutionTime = 134.33 s  ClockTime = 134 s

Time = 0.9995

Courant Number mean: 0.050085 max: 0.14124
smoothSolver:  Solving for Ux, Initial residual = 1.17978e-05, Final residual = 6.69664e-09, No Iterations 1
smoothSolver:  Solving for Uy, Initial residual = 9.54425e-05, Final residual = 8.01504e-08, No Iterations 1
DICPCG:  Solving for p, Initial residual = 0.000669383, Final residual = 2.81439e-05, No Iterations 3
time step continuity errors : sum local = 1.80999e-11, global = 6.86815e-20, cumulative = -6.81018e-16
DICPCG:  Solving for p, Initial residual = 3.85149e-05, Final residual = 9.70131e-07, No Iterations 87
time step continuity errors : sum local = 6.21546e-13, global = 3.50194e-19, cumulative = -6.80668e-16
ExecutionTime = 134.352 s  ClockTime = 134 s

Time = 0.99975

Courant Number mean: 0.050085 max: 0.14124
smoothSolver:  Solving for Ux, Initial residual = 1.18032e-05, Final residual = 6.70435e-09, No Iterations 1
smoothSolver:  Solving for Uy, Initial residual = 9.54756e-05, Final residual = 8.02445e-08, No Iterations 1
DICPCG:  Solving for p, Initial residual = 0.000668348, Final residual = 2.53761e-05, No Iterations 3
time step continuity errors : sum local = 1.63336e-11, global = 4.57844e-20, cumulative = -6.80622e-16
DICPCG:  Solving for p, Initial residual = 3.63402e-05, Final residual = 8.31198e-07, No Iterations 32
time step continuity errors : sum local = 5.50072e-13, global = -5.5443e-19, cumulative = -6.81177e-16
ExecutionTime = 134.369 s  ClockTime = 134 s

Time = 1

Courant Number mean: 0.0500851 max: 0.14124
smoothSolver:  Solving for Ux, Initial residual = 1.17968e-05, Final residual = 6.70169e-09, No Iterations 1
smoothSolver:  Solving for Uy, Initial residual = 9.54811e-05, Final residual = 8.03034e-08, No Iterations 1
DICPCG:  Solving for p, Initial residual = 0.000668745, Final residual = 2.82086e-05, No Iterations 3
time step continuity errors : sum local = 1.81153e-11, global = -3.71467e-19, cumulative = -6.81548e-16
DICPCG:  Solving for p, Initial residual = 3.8632e-05, Final residual = 9.51421e-07, No Iterations 89
time step continuity errors : sum local = 6.08908e-13, global = -1.92678e-19, cumulative = -6.81741e-16
ExecutionTime = 134.469 s  ClockTime = 134 s

End

