/*---------------------------------------------------------------------------*\
| =========                 |                                                 |
| \\      /  F ield         | OpenFOAM: The Open Source CFD Toolbox           |
|  \\    /   O peration     | Version:  v1906                                 |
|   \\  /    A nd           | Web:      www.OpenFOAM.com                      |
|    \\/     M anipulation  |                                                 |
\*---------------------------------------------------------------------------*/
Build  : fc3d515-20190712 OPENFOAM=1906 patch=190708
Arch   : "LSB;label=32;scalar=64"
Exec   : D:\OpenFoam\v1906\msys64\home\ofuser\OpenFOAM\OpenFOAM-v1906\platforms\linux64MingwDPInt32Opt\bin\icoFoam.exe
Date   : Mar 15 2020
Time   : 16:25:47
Host   : NICK
PID    : 3184
I/O    : uncollated
Case   : D:/OpenFoam/v1906/msys64/home/Nick/run/cavity/cavityHighRe
nProcs : 1
trapFpe: Floating point exception trapping enabled (FOAM_SIGFPE).
fileModificationChecking : Monitoring run-time modified files using timeStampMaster (fileModificationSkew 10)
allowSystemOperations : Allowing user-supplied system call operations

// * * * * * * * * * * * * * * * * * * * * * * * * * * * * * * * * * * * * * //
Create time

Create mesh for time = 0.5


PISO: Operating solver in PISO mode

Reading transportProperties

Reading field p

Reading field U

Reading/calculating face flux field phi


Starting time loop

Time = 0.505

Courant Number mean: 0.222158 max: 0.852134
smoothSolver:  Solving for Ux, Initial residual = 0.198014, Final residual = 2.2425e-06, No Iterations 4
smoothSolver:  Solving for Uy, Initial residual = 0.192389, Final residual = 1.70947e-06, No Iterations 4
DICPCG:  Solving for p, Initial residual = 0.755123, Final residual = 0.0303049, No Iterations 11
time step continuity errors : sum local = 0.000928356, global = 7.53065e-19, cumulative = 1.29266e-17
DICPCG:  Solving for p, Initial residual = 0.689105, Final residual = 3.26318e-07, No Iterations 35
time step continuity errors : sum local = 3.36779e-09, global = -7.11375e-21, cumulative = 1.29195e-17
ExecutionTime = 0.056 s  ClockTime = 0 s

Time = 0.51

Courant Number mean: 0.222151 max: 0.852683
smoothSolver:  Solving for Ux, Initial residual = 0.0117835, Final residual = 2.40488e-06, No Iterations 3
smoothSolver:  Solving for Uy, Initial residual = 0.0157943, Final residual = 3.21697e-06, No Iterations 3
DICPCG:  Solving for p, Initial residual = 0.123173, Final residual = 0.00589747, No Iterations 8
time step continuity errors : sum local = 5.59998e-05, global = -1.07203e-19, cumulative = 1.28122e-17
DICPCG:  Solving for p, Initial residual = 0.0367414, Final residual = 5.04783e-07, No Iterations 31
time step continuity errors : sum local = 3.66547e-09, global = 1.09808e-18, cumulative = 1.39103e-17
ExecutionTime = 0.059 s  ClockTime = 0 s

Time = 0.515

Courant Number mean: 0.221979 max: 0.852703
smoothSolver:  Solving for Ux, Initial residual = 0.00873579, Final residual = 1.70811e-06, No Iterations 3
smoothSolver:  Solving for Uy, Initial residual = 0.0123485, Final residual = 2.7346e-06, No Iterations 3
DICPCG:  Solving for p, Initial residual = 0.0328899, Final residual = 0.00148654, No Iterations 9
time step continuity errors : sum local = 1.46311e-05, global = -7.82844e-19, cumulative = 1.31275e-17
DICPCG:  Solving for p, Initial residual = 0.0105834, Final residual = 5.71616e-07, No Iterations 29
time step continuity errors : sum local = 4.08772e-09, global = -1.17046e-18, cumulative = 1.1957e-17
ExecutionTime = 0.062 s  ClockTime = 0 s

Time = 0.52

Courant Number mean: 0.22176 max: 0.853038
smoothSolver:  Solving for Ux, Initial residual = 0.00755684, Final residual = 1.58247e-06, No Iterations 3
smoothSolver:  Solving for Uy, Initial residual = 0.0105732, Final residual = 2.44188e-06, No Iterations 3
DICPCG:  Solving for p, Initial residual = 0.026411, Final residual = 0.00100534, No Iterations 9
time step continuity errors : sum local = 8.92203e-06, global = 4.30134e-19, cumulative = 1.23872e-17
DICPCG:  Solving for p, Initial residual = 0.00905674, Final residual = 7.46531e-07, No Iterations 29
time step continuity errors : sum local = 5.39769e-09, global = -3.68095e-20, cumulative = 1.23504e-17
ExecutionTime = 0.066 s  ClockTime = 0 s

Time = 0.525

Courant Number mean: 0.221503 max: 0.853438
smoothSolver:  Solving for Ux, Initial residual = 0.00656789, Final residual = 1.40128e-06, No Iterations 3
smoothSolver:  Solving for Uy, Initial residual = 0.00931958, Final residual = 2.26612e-06, No Iterations 3
DICPCG:  Solving for p, Initial residual = 0.0226751, Final residual = 0.000700531, No Iterations 9
time step continuity errors : sum local = 5.35139e-06, global = 1.07451e-18, cumulative = 1.34249e-17
DICPCG:  Solving for p, Initial residual = 0.00802542, Final residual = 6.39243e-07, No Iterations 29
time step continuity errors : sum local = 4.63926e-09, global = -3.42535e-19, cumulative = 1.30823e-17
ExecutionTime = 0.071 s  ClockTime = 0 s

Time = 0.53

Courant Number mean: 0.221245 max: 0.853652
smoothSolver:  Solving for Ux, Initial residual = 0.00585077, Final residual = 1.28474e-06, No Iterations 3
smoothSolver:  Solving for Uy, Initial residual = 0.00830168, Final residual = 2.08874e-06, No Iterations 3
DICPCG:  Solving for p, Initial residual = 0.0202977, Final residual = 0.000575973, No Iterations 9
time step continuity errors : sum local = 4.48843e-06, global = 1.00105e-18, cumulative = 1.40834e-17
DICPCG:  Solving for p, Initial residual = 0.0072168, Final residual = 5.4093e-07, No Iterations 29
time step continuity errors : sum local = 3.93968e-09, global = -4.96557e-19, cumulative = 1.35868e-17
ExecutionTime = 0.074 s  ClockTime = 0 s

Time = 0.535

Courant Number mean: 0.22103 max: 0.853657
smoothSolver:  Solving for Ux, Initial residual = 0.00522262, Final residual = 1.16732e-06, No Iterations 3
smoothSolver:  Solving for Uy, Initial residual = 0.00749942, Final residual = 1.94543e-06, No Iterations 3
DICPCG:  Solving for p, Initial residual = 0.018412, Final residual = 0.000863627, No Iterations 8
time step continuity errors : sum local = 6.32768e-06, global = 2.82172e-19, cumulative = 1.3869e-17
DICPCG:  Solving for p, Initial residual = 0.00646397, Final residual = 4.54908e-07, No Iterations 29
time step continuity errors : sum local = 3.31374e-09, global = -2.04314e-20, cumulative = 1.38486e-17
ExecutionTime = 0.077 s  ClockTime = 0 s

Time = 0.54

Courant Number mean: 0.220793 max: 0.853469
smoothSolver:  Solving for Ux, Initial residual = 0.00472273, Final residual = 1.06898e-06, No Iterations 3
smoothSolver:  Solving for Uy, Initial residual = 0.00678852, Final residual = 1.81138e-06, No Iterations 3
DICPCG:  Solving for p, Initial residual = 0.0160214, Final residual = 0.000794091, No Iterations 6
time step continuity errors : sum local = 5.84707e-06, global = -2.79587e-19, cumulative = 1.3569e-17
DICPCG:  Solving for p, Initial residual = 0.0059103, Final residual = 4.20861e-07, No Iterations 29
time step continuity errors : sum local = 3.07169e-09, global = -1.24342e-18, cumulative = 1.23256e-17
ExecutionTime = 0.08 s  ClockTime = 0 s

Time = 0.545

Courant Number mean: 0.220576 max: 0.853085
smoothSolver:  Solving for Ux, Initial residual = 0.00428047, Final residual = 9.78414e-07, No Iterations 3
smoothSolver:  Solving for Uy, Initial residual = 0.00619503, Final residual = 1.69106e-06, No Iterations 3
DICPCG:  Solving for p, Initial residual = 0.0145532, Final residual = 0.000510229, No Iterations 6
time step continuity errors : sum local = 3.72649e-06, global = 1.32581e-18, cumulative = 1.36514e-17
DICPCG:  Solving for p, Initial residual = 0.00520643, Final residual = 9.05284e-07, No Iterations 28
time step continuity errors : sum local = 6.62575e-09, global = 2.56674e-19, cumulative = 1.3908e-17
ExecutionTime = 0.082 s  ClockTime = 0 s

Time = 0.55

Courant Number mean: 0.220368 max: 0.852587
smoothSolver:  Solving for Ux, Initial residual = 0.00389265, Final residual = 8.92416e-07, No Iterations 3
smoothSolver:  Solving for Uy, Initial residual = 0.00567869, Final residual = 1.57686e-06, No Iterations 3
DICPCG:  Solving for p, Initial residual = 0.0131654, Final residual = 0.000458481, No Iterations 6
time step continuity errors : sum local = 3.36323e-06, global = -7.76392e-19, cumulative = 1.31316e-17
DICPCG:  Solving for p, Initial residual = 0.00475347, Final residual = 7.58819e-07, No Iterations 28
time step continuity errors : sum local = 5.55498e-09, global = 1.14184e-18, cumulative = 1.42735e-17
ExecutionTime = 0.088 s  ClockTime = 0 s

Time = 0.555

Courant Number mean: 0.220173 max: 0.851928
smoothSolver:  Solving for Ux, Initial residual = 0.00356133, Final residual = 8.19866e-07, No Iterations 3
smoothSolver:  Solving for Uy, Initial residual = 0.00520169, Final residual = 1.47036e-06, No Iterations 3
DICPCG:  Solving for p, Initial residual = 0.0119098, Final residual = 0.000384147, No Iterations 6
time step continuity errors : sum local = 2.81558e-06, global = 1.1837e-19, cumulative = 1.43919e-17
DICPCG:  Solving for p, Initial residual = 0.00433009, Final residual = 6.02092e-07, No Iterations 28
time step continuity errors : sum local = 4.40929e-09, global = 6.0897e-19, cumulative = 1.50008e-17
ExecutionTime = 0.091 s  ClockTime = 0 s

Time = 0.56

Courant Number mean: 0.219974 max: 0.851398
smoothSolver:  Solving for Ux, Initial residual = 0.00326701, Final residual = 7.57787e-07, No Iterations 3
smoothSolver:  Solving for Uy, Initial residual = 0.00476597, Final residual = 1.36873e-06, No Iterations 3
DICPCG:  Solving for p, Initial residual = 0.0106803, Final residual = 0.000317572, No Iterations 6
time step continuity errors : sum local = 2.32963e-06, global = 1.66098e-19, cumulative = 1.51669e-17
DICPCG:  Solving for p, Initial residual = 0.00391434, Final residual = 5.04101e-07, No Iterations 28
time step continuity errors : sum local = 3.69439e-09, global = -2.10104e-20, cumulative = 1.51459e-17
ExecutionTime = 0.094 s  ClockTime = 0 s

Time = 0.565

Courant Number mean: 0.219789 max: 0.851253
smoothSolver:  Solving for Ux, Initial residual = 0.00299962, Final residual = 7.01124e-07, No Iterations 3
smoothSolver:  Solving for Uy, Initial residual = 0.00439337, Final residual = 1.27577e-06, No Iterations 3
DICPCG:  Solving for p, Initial residual = 0.00976926, Final residual = 0.000277766, No Iterations 6
time step continuity errors : sum local = 2.04098e-06, global = -8.75105e-20, cumulative = 1.50584e-17
DICPCG:  Solving for p, Initial residual = 0.00357291, Final residual = 8.09659e-07, No Iterations 27
time step continuity errors : sum local = 5.89316e-09, global = -1.255e-18, cumulative = 1.38034e-17
ExecutionTime = 0.096 s  ClockTime = 0 s

Time = 0.57

Courant Number mean: 0.219617 max: 0.851015
smoothSolver:  Solving for Ux, Initial residual = 0.00276129, Final residual = 6.50989e-07, No Iterations 3
smoothSolver:  Solving for Uy, Initial residual = 0.00405818, Final residual = 1.18821e-06, No Iterations 3
DICPCG:  Solving for p, Initial residual = 0.00886003, Final residual = 0.000229323, No Iterations 6
time step continuity errors : sum local = 1.68416e-06, global = 9.98159e-19, cumulative = 1.48016e-17
DICPCG:  Solving for p, Initial residual = 0.00323855, Final residual = 6.57588e-07, No Iterations 27
time step continuity errors : sum local = 4.78177e-09, global = -6.92267e-19, cumulative = 1.41093e-17
ExecutionTime = 0.099 s  ClockTime = 0 s

Time = 0.575

Courant Number mean: 0.21945 max: 0.850667
smoothSolver:  Solving for Ux, Initial residual = 0.00254408, Final residual = 9.43349e-06, No Iterations 2
smoothSolver:  Solving for Uy, Initial residual = 0.00374745, Final residual = 1.10577e-06, No Iterations 3
DICPCG:  Solving for p, Initial residual = 0.0080256, Final residual = 0.000400207, No Iterations 5
time step continuity errors : sum local = 2.90518e-06, global = -1.73956e-19, cumulative = 1.39353e-17
DICPCG:  Solving for p, Initial residual = 0.00296834, Final residual = 5.54468e-07, No Iterations 27
time step continuity errors : sum local = 4.00583e-09, global = -4.76456e-19, cumulative = 1.34589e-17
ExecutionTime = 0.101 s  ClockTime = 0 s

Time = 0.58

Courant Number mean: 0.219299 max: 0.850274
smoothSolver:  Solving for Ux, Initial residual = 0.00234711, Final residual = 8.77075e-06, No Iterations 2
smoothSolver:  Solving for Uy, Initial residual = 0.00345927, Final residual = 1.02962e-06, No Iterations 3
DICPCG:  Solving for p, Initial residual = 0.00745823, Final residual = 0.000363545, No Iterations 5
time step continuity errors : sum local = 2.63623e-06, global = -8.12705e-19, cumulative = 1.26462e-17
DICPCG:  Solving for p, Initial residual = 0.00268999, Final residual = 4.88922e-07, No Iterations 27
time step continuity errors : sum local = 3.52737e-09, global = -9.55394e-20, cumulative = 1.25506e-17
ExecutionTime = 0.106 s  ClockTime = 0 s

Time = 0.585

Courant Number mean: 0.219167 max: 0.849842
smoothSolver:  Solving for Ux, Initial residual = 0.00216787, Final residual = 8.15155e-06, No Iterations 2
smoothSolver:  Solving for Uy, Initial residual = 0.00319363, Final residual = 9.59424e-07, No Iterations 3
DICPCG:  Solving for p, Initial residual = 0.0068688, Final residual = 0.00033083, No Iterations 5
time step continuity errors : sum local = 2.40174e-06, global = 6.62654e-19, cumulative = 1.32133e-17
DICPCG:  Solving for p, Initial residual = 0.00247474, Final residual = 8.87212e-07, No Iterations 26
time step continuity errors : sum local = 6.55142e-09, global = 4.93331e-19, cumulative = 1.37066e-17
ExecutionTime = 0.109 s  ClockTime = 0 s

Time = 0.59

Courant Number mean: 0.219041 max: 0.849383
smoothSolver:  Solving for Ux, Initial residual = 0.00201093, Final residual = 7.60552e-06, No Iterations 2
smoothSolver:  Solving for Uy, Initial residual = 0.00295114, Final residual = 8.92165e-07, No Iterations 3
DICPCG:  Solving for p, Initial residual = 0.00614568, Final residual = 0.000286775, No Iterations 5
time step continuity errors : sum local = 2.07837e-06, global = -2.7388e-19, cumulative = 1.34327e-17
DICPCG:  Solving for p, Initial residual = 0.00224426, Final residual = 7.58163e-07, No Iterations 24
time step continuity errors : sum local = 5.55568e-09, global = -1.13158e-19, cumulative = 1.33196e-17
ExecutionTime = 0.112 s  ClockTime = 0 s

Time = 0.595

Courant Number mean: 0.218922 max: 0.848906
smoothSolver:  Solving for Ux, Initial residual = 0.00186499, Final residual = 7.09079e-06, No Iterations 2
smoothSolver:  Solving for Uy, Initial residual = 0.00272704, Final residual = 8.30053e-07, No Iterations 3
DICPCG:  Solving for p, Initial residual = 0.00545834, Final residual = 0.000258117, No Iterations 5
time step continuity errors : sum local = 1.87518e-06, global = 7.06578e-19, cumulative = 1.40262e-17
DICPCG:  Solving for p, Initial residual = 0.00200554, Final residual = 6.47455e-07, No Iterations 25
time step continuity errors : sum local = 4.76453e-09, global = -6.90282e-19, cumulative = 1.33359e-17
ExecutionTime = 0.114 s  ClockTime = 0 s

Time = 0.6

Courant Number mean: 0.218813 max: 0.848421
smoothSolver:  Solving for Ux, Initial residual = 0.00173452, Final residual = 6.64598e-06, No Iterations 2
smoothSolver:  Solving for Uy, Initial residual = 0.00252027, Final residual = 7.71839e-07, No Iterations 3
DICPCG:  Solving for p, Initial residual = 0.00492832, Final residual = 0.00023823, No Iterations 5
time step continuity errors : sum local = 1.72701e-06, global = -7.72421e-19, cumulative = 1.25635e-17
DICPCG:  Solving for p, Initial residual = 0.00179112, Final residual = 4.64491e-07, No Iterations 25
time step continuity errors : sum local = 3.35571e-09, global = -1.66247e-18, cumulative = 1.0901e-17
ExecutionTime = 0.132 s  ClockTime = 0 s

Time = 0.605

Courant Number mean: 0.218718 max: 0.847934
smoothSolver:  Solving for Ux, Initial residual = 0.00161782, Final residual = 6.24064e-06, No Iterations 2
smoothSolver:  Solving for Uy, Initial residual = 0.00232926, Final residual = 7.17211e-07, No Iterations 3
DICPCG:  Solving for p, Initial residual = 0.0044707, Final residual = 0.00021454, No Iterations 5
time step continuity errors : sum local = 1.55609e-06, global = 1.838e-19, cumulative = 1.10848e-17
DICPCG:  Solving for p, Initial residual = 0.00162704, Final residual = 6.70151e-07, No Iterations 25
time step continuity errors : sum local = 4.87433e-09, global = 1.27882e-19, cumulative = 1.12127e-17
ExecutionTime = 0.138 s  ClockTime = 0 s

Time = 0.61

Courant Number mean: 0.218631 max: 0.84745
smoothSolver:  Solving for Ux, Initial residual = 0.00150893, Final residual = 5.86105e-06, No Iterations 2
smoothSolver:  Solving for Uy, Initial residual = 0.00215282, Final residual = 9.59956e-06, No Iterations 2
DICPCG:  Solving for p, Initial residual = 0.00427308, Final residual = 0.000201768, No Iterations 5
time step continuity errors : sum local = 1.462e-06, global = -7.23618e-19, cumulative = 1.04891e-17
DICPCG:  Solving for p, Initial residual = 0.00146117, Final residual = 9.62639e-07, No Iterations 25
time step continuity errors : sum local = 6.93732e-09, global = -7.6142e-19, cumulative = 9.72764e-18
ExecutionTime = 0.141 s  ClockTime = 0 s

Time = 0.615

Courant Number mean: 0.218558 max: 0.846974
smoothSolver:  Solving for Ux, Initial residual = 0.00140969, Final residual = 5.50595e-06, No Iterations 2
smoothSolver:  Solving for Uy, Initial residual = 0.00199047, Final residual = 8.90754e-06, No Iterations 2
DICPCG:  Solving for p, Initial residual = 0.00383949, Final residual = 0.000188815, No Iterations 5
time step continuity errors : sum local = 1.36932e-06, global = 6.02932e-19, cumulative = 1.03306e-17
DICPCG:  Solving for p, Initial residual = 0.00135344, Final residual = 5.0712e-07, No Iterations 26
time step continuity errors : sum local = 3.70119e-09, global = -5.62483e-20, cumulative = 1.02743e-17
ExecutionTime = 0.144 s  ClockTime = 0 s

Time = 0.62

Courant Number mean: 0.218498 max: 0.846509
smoothSolver:  Solving for Ux, Initial residual = 0.00131993, Final residual = 5.18742e-06, No Iterations 2
smoothSolver:  Solving for Uy, Initial residual = 0.00184195, Final residual = 8.26381e-06, No Iterations 2
DICPCG:  Solving for p, Initial residual = 0.00344351, Final residual = 0.000153479, No Iterations 5
time step continuity errors : sum local = 1.10884e-06, global = -8.92528e-20, cumulative = 1.01851e-17
DICPCG:  Solving for p, Initial residual = 0.00119545, Final residual = 9.04716e-07, No Iterations 25
time step continuity errors : sum local = 6.54272e-09, global = -4.28645e-19, cumulative = 9.75642e-18
ExecutionTime = 0.148 s  ClockTime = 0 s

Time = 0.625

Courant Number mean: 0.218447 max: 0.846062
smoothSolver:  Solving for Ux, Initial residual = 0.00123545, Final residual = 4.88681e-06, No Iterations 2
smoothSolver:  Solving for Uy, Initial residual = 0.00170655, Final residual = 7.6773e-06, No Iterations 2
DICPCG:  Solving for p, Initial residual = 0.00306091, Final residual = 0.000144282, No Iterations 5
time step continuity errors : sum local = 1.04635e-06, global = -6.01774e-19, cumulative = 9.15465e-18
DICPCG:  Solving for p, Initial residual = 0.00108011, Final residual = 8.86962e-07, No Iterations 25
time step continuity errors : sum local = 6.42091e-09, global = -9.65733e-19, cumulative = 8.18891e-18
ExecutionTime = 0.151 s  ClockTime = 0 s

Time = 0.63

Courant Number mean: 0.218404 max: 0.845639
smoothSolver:  Solving for Ux, Initial residual = 0.00115835, Final residual = 4.61731e-06, No Iterations 2
smoothSolver:  Solving for Uy, Initial residual = 0.00158265, Final residual = 7.13658e-06, No Iterations 2
DICPCG:  Solving for p, Initial residual = 0.00274854, Final residual = 0.000132615, No Iterations 5
time step continuity errors : sum local = 9.57734e-07, global = 5.691e-20, cumulative = 8.24582e-18
DICPCG:  Solving for p, Initial residual = 0.000984304, Final residual = 7.82658e-07, No Iterations 25
time step continuity errors : sum local = 5.65351e-09, global = 1.1382e-19, cumulative = 8.35964e-18
ExecutionTime = 0.154 s  ClockTime = 0 s

Time = 0.635

Courant Number mean: 0.218372 max: 0.845236
smoothSolver:  Solving for Ux, Initial residual = 0.00108853, Final residual = 4.37838e-06, No Iterations 2
smoothSolver:  Solving for Uy, Initial residual = 0.00146714, Final residual = 6.63965e-06, No Iterations 2
DICPCG:  Solving for p, Initial residual = 0.00260996, Final residual = 0.000129091, No Iterations 5
time step continuity errors : sum local = 9.32915e-07, global = 5.78696e-19, cumulative = 8.93834e-18
DICPCG:  Solving for p, Initial residual = 0.000923332, Final residual = 7.29548e-07, No Iterations 25
time step continuity errors : sum local = 5.26525e-09, global = 1.12331e-19, cumulative = 9.05067e-18
ExecutionTime = 0.158 s  ClockTime = 0 s

Time = 0.64

Courant Number mean: 0.21835 max: 0.844851
smoothSolver:  Solving for Ux, Initial residual = 0.00102578, Final residual = 4.16825e-06, No Iterations 2
smoothSolver:  Solving for Uy, Initial residual = 0.00135952, Final residual = 6.18061e-06, No Iterations 2
DICPCG:  Solving for p, Initial residual = 0.00239761, Final residual = 0.000111068, No Iterations 5
time step continuity errors : sum local = 8.00594e-07, global = -1.5915e-19, cumulative = 8.89152e-18
DICPCG:  Solving for p, Initial residual = 0.000814465, Final residual = 7.17961e-07, No Iterations 22
time step continuity errors : sum local = 5.18048e-09, global = -2.68916e-19, cumulative = 8.62261e-18
ExecutionTime = 0.16 s  ClockTime = 0 s

Time = 0.645

Courant Number mean: 0.218334 max: 0.844493
smoothSolver:  Solving for Ux, Initial residual = 0.000967489, Final residual = 3.97271e-06, No Iterations 2
smoothSolver:  Solving for Uy, Initial residual = 0.00126252, Final residual = 5.76642e-06, No Iterations 2
DICPCG:  Solving for p, Initial residual = 0.00211693, Final residual = 7.63416e-05, No Iterations 6
time step continuity errors : sum local = 5.53184e-07, global = -9.60605e-19, cumulative = 7.662e-18
DICPCG:  Solving for p, Initial residual = 0.000764025, Final residual = 7.95235e-07, No Iterations 22
time step continuity errors : sum local = 5.73219e-09, global = -6.02601e-19, cumulative = 7.0594e-18
ExecutionTime = 0.163 s  ClockTime = 0 s

Time = 0.65

Courant Number mean: 0.218323 max: 0.844148
smoothSolver:  Solving for Ux, Initial residual = 0.00091616, Final residual = 3.79682e-06, No Iterations 2
smoothSolver:  Solving for Uy, Initial residual = 0.00117175, Final residual = 5.37219e-06, No Iterations 2
DICPCG:  Solving for p, Initial residual = 0.00197457, Final residual = 7.27501e-05, No Iterations 6
time step continuity errors : sum local = 5.24014e-07, global = -9.28758e-19, cumulative = 6.13064e-18
DICPCG:  Solving for p, Initial residual = 0.000713333, Final residual = 4.69711e-07, No Iterations 22
time step continuity errors : sum local = 3.39108e-09, global = 3.74465e-19, cumulative = 6.50511e-18
ExecutionTime = 0.167 s  ClockTime = 0 s

Time = 0.655

Courant Number mean: 0.218318 max: 0.843824
smoothSolver:  Solving for Ux, Initial residual = 0.000868691, Final residual = 3.63082e-06, No Iterations 2
smoothSolver:  Solving for Uy, Initial residual = 0.00108963, Final residual = 5.01366e-06, No Iterations 2
DICPCG:  Solving for p, Initial residual = 0.00184862, Final residual = 7.66131e-05, No Iterations 6
time step continuity errors : sum local = 5.51858e-07, global = -2.12585e-19, cumulative = 6.29252e-18
DICPCG:  Solving for p, Initial residual = 0.000664775, Final residual = 4.63293e-07, No Iterations 22
time step continuity errors : sum local = 3.34652e-09, global = -1.2631e-19, cumulative = 6.16621e-18
ExecutionTime = 0.171 s  ClockTime = 0 s

Time = 0.66

Courant Number mean: 0.21832 max: 0.843518
smoothSolver:  Solving for Ux, Initial residual = 0.000824478, Final residual = 3.48151e-06, No Iterations 2
smoothSolver:  Solving for Uy, Initial residual = 0.00101467, Final residual = 4.68877e-06, No Iterations 2
DICPCG:  Solving for p, Initial residual = 0.00172355, Final residual = 7.08344e-05, No Iterations 6
time step continuity errors : sum local = 5.10265e-07, global = -5.83328e-19, cumulative = 5.58288e-18
DICPCG:  Solving for p, Initial residual = 0.000625785, Final residual = 8.61711e-07, No Iterations 22
time step continuity errors : sum local = 6.21297e-09, global = 6.4396e-19, cumulative = 6.22684e-18
ExecutionTime = 0.174 s  ClockTime = 0 s

Time = 0.665

Courant Number mean: 0.218327 max: 0.843232
smoothSolver:  Solving for Ux, Initial residual = 0.00078356, Final residual = 3.34642e-06, No Iterations 2
smoothSolver:  Solving for Uy, Initial residual = 0.000946212, Final residual = 4.3943e-06, No Iterations 2
DICPCG:  Solving for p, Initial residual = 0.00159521, Final residual = 7.17733e-05, No Iterations 6
time step continuity errors : sum local = 5.16275e-07, global = 4.85638e-19, cumulative = 6.71248e-18
DICPCG:  Solving for p, Initial residual = 0.000587052, Final residual = 5.34795e-07, No Iterations 22
time step continuity errors : sum local = 3.86557e-09, global = 1.25161e-18, cumulative = 7.96409e-18
ExecutionTime = 0.177 s  ClockTime = 0 s

Time = 0.67

Courant Number mean: 0.218338 max: 0.842963
smoothSolver:  Solving for Ux, Initial residual = 0.000746324, Final residual = 3.22322e-06, No Iterations 2
smoothSolver:  Solving for Uy, Initial residual = 0.000884314, Final residual = 4.1227e-06, No Iterations 2
DICPCG:  Solving for p, Initial residual = 0.0014936, Final residual = 6.96072e-05, No Iterations 6
time step continuity errors : sum local = 5.02309e-07, global = 2.62216e-19, cumulative = 8.2263e-18
DICPCG:  Solving for p, Initial residual = 0.000552323, Final residual = 8.40419e-07, No Iterations 22
time step continuity errors : sum local = 6.0627e-09, global = 4.26825e-20, cumulative = 8.26899e-18
ExecutionTime = 0.179 s  ClockTime = 0 s

Time = 0.675

Courant Number mean: 0.218354 max: 0.842713
smoothSolver:  Solving for Ux, Initial residual = 0.000711366, Final residual = 3.10781e-06, No Iterations 2
smoothSolver:  Solving for Uy, Initial residual = 0.000828015, Final residual = 3.87425e-06, No Iterations 2
DICPCG:  Solving for p, Initial residual = 0.0014027, Final residual = 6.89742e-05, No Iterations 6
time step continuity errors : sum local = 4.98153e-07, global = 3.33354e-19, cumulative = 8.60234e-18
DICPCG:  Solving for p, Initial residual = 0.000520522, Final residual = 8.38419e-07, No Iterations 22
time step continuity errors : sum local = 6.04912e-09, global = 1.79664e-19, cumulative = 8.782e-18
ExecutionTime = 0.182 s  ClockTime = 0 s

Time = 0.68

Courant Number mean: 0.218374 max: 0.842479
smoothSolver:  Solving for Ux, Initial residual = 0.000678971, Final residual = 3.00038e-06, No Iterations 2
smoothSolver:  Solving for Uy, Initial residual = 0.000775943, Final residual = 3.65264e-06, No Iterations 2
DICPCG:  Solving for p, Initial residual = 0.00133227, Final residual = 5.85054e-05, No Iterations 7
time step continuity errors : sum local = 4.22257e-07, global = -7.40823e-19, cumulative = 8.04118e-18
DICPCG:  Solving for p, Initial residual = 0.000486381, Final residual = 7.19634e-07, No Iterations 22
time step continuity errors : sum local = 5.20939e-09, global = -2.76113e-19, cumulative = 7.76507e-18
ExecutionTime = 0.188 s  ClockTime = 0 s

Time = 0.685

Courant Number mean: 0.218398 max: 0.842261
smoothSolver:  Solving for Ux, Initial residual = 0.000648686, Final residual = 2.90014e-06, No Iterations 2
smoothSolver:  Solving for Uy, Initial residual = 0.000727629, Final residual = 3.45108e-06, No Iterations 2
DICPCG:  Solving for p, Initial residual = 0.00124253, Final residual = 6.0801e-05, No Iterations 7
time step continuity errors : sum local = 4.38738e-07, global = 2.86701e-19, cumulative = 8.05177e-18
DICPCG:  Solving for p, Initial residual = 0.000462449, Final residual = 9.82543e-07, No Iterations 21
time step continuity errors : sum local = 7.05688e-09, global = -2.43439e-19, cumulative = 7.80833e-18
ExecutionTime = 0.191 s  ClockTime = 0 s

Time = 0.69

Courant Number mean: 0.218426 max: 0.842058
smoothSolver:  Solving for Ux, Initial residual = 0.000620392, Final residual = 2.80669e-06, No Iterations 2
smoothSolver:  Solving for Uy, Initial residual = 0.000683582, Final residual = 3.26713e-06, No Iterations 2
DICPCG:  Solving for p, Initial residual = 0.00116866, Final residual = 4.76075e-05, No Iterations 8
time step continuity errors : sum local = 3.42123e-07, global = -5.15913e-19, cumulative = 7.29242e-18
DICPCG:  Solving for p, Initial residual = 0.000429277, Final residual = 8.59596e-07, No Iterations 21
time step continuity errors : sum local = 6.18494e-09, global = 7.44463e-22, cumulative = 7.29316e-18
ExecutionTime = 0.193 s  ClockTime = 0 s

Time = 0.695

Courant Number mean: 0.218458 max: 0.841869
smoothSolver:  Solving for Ux, Initial residual = 0.000593332, Final residual = 2.71929e-06, No Iterations 2
smoothSolver:  Solving for Uy, Initial residual = 0.000643232, Final residual = 3.09411e-06, No Iterations 2
DICPCG:  Solving for p, Initial residual = 0.00112906, Final residual = 5.12701e-05, No Iterations 8
time step continuity errors : sum local = 3.68814e-07, global = -2.4865e-19, cumulative = 7.04451e-18
DICPCG:  Solving for p, Initial residual = 0.000404137, Final residual = 8.35332e-07, No Iterations 21
time step continuity errors : sum local = 6.01456e-09, global = 1.38966e-19, cumulative = 7.18348e-18
ExecutionTime = 0.196 s  ClockTime = 0 s

Time = 0.7

Courant Number mean: 0.218493 max: 0.841693
smoothSolver:  Solving for Ux, Initial residual = 0.000567891, Final residual = 2.63484e-06, No Iterations 2
smoothSolver:  Solving for Uy, Initial residual = 0.000606477, Final residual = 2.93616e-06, No Iterations 2
DICPCG:  Solving for p, Initial residual = 0.00103315, Final residual = 4.31387e-05, No Iterations 8
time step continuity errors : sum local = 3.11157e-07, global = 3.3873e-19, cumulative = 7.52221e-18
DICPCG:  Solving for p, Initial residual = 0.000380049, Final residual = 9.15882e-07, No Iterations 22
time step continuity errors : sum local = 6.63279e-09, global = -4.59085e-20, cumulative = 7.4763e-18
ExecutionTime = 0.212 s  ClockTime = 0 s

Time = 0.705

Courant Number mean: 0.218531 max: 0.84153
smoothSolver:  Solving for Ux, Initial residual = 0.000543921, Final residual = 2.55257e-06, No Iterations 2
smoothSolver:  Solving for Uy, Initial residual = 0.000573234, Final residual = 2.79098e-06, No Iterations 2
DICPCG:  Solving for p, Initial residual = 0.000972964, Final residual = 4.17037e-05, No Iterations 8
time step continuity errors : sum local = 3.00326e-07, global = -1.08261e-18, cumulative = 6.39368e-18
DICPCG:  Solving for p, Initial residual = 0.000358624, Final residual = 8.55079e-07, No Iterations 23
time step continuity errors : sum local = 6.21634e-09, global = -2.12585e-19, cumulative = 6.1811e-18
ExecutionTime = 0.216 s  ClockTime = 0 s

Time = 0.71

Courant Number mean: 0.218571 max: 0.841379
smoothSolver:  Solving for Ux, Initial residual = 0.000521408, Final residual = 2.47432e-06, No Iterations 2
smoothSolver:  Solving for Uy, Initial residual = 0.00054246, Final residual = 2.65714e-06, No Iterations 2
DICPCG:  Solving for p, Initial residual = 0.000918584, Final residual = 4.02698e-05, No Iterations 8
time step continuity errors : sum local = 2.91143e-07, global = -5.41969e-19, cumulative = 5.63913e-18
DICPCG:  Solving for p, Initial residual = 0.000339394, Final residual = 8.75858e-07, No Iterations 15
time step continuity errors : sum local = 9.43557e-09, global = 2.66931e-19, cumulative = 5.90606e-18
ExecutionTime = 0.22 s  ClockTime = 0 s

Time = 0.715

Courant Number mean: 0.218614 max: 0.841239
smoothSolver:  Solving for Ux, Initial residual = 0.000499766, Final residual = 2.39712e-06, No Iterations 2
smoothSolver:  Solving for Uy, Initial residual = 0.00051453, Final residual = 2.53316e-06, No Iterations 2
DICPCG:  Solving for p, Initial residual = 0.00087812, Final residual = 3.81116e-05, No Iterations 8
time step continuity errors : sum local = 2.75773e-07, global = 6.13768e-19, cumulative = 6.51983e-18
DICPCG:  Solving for p, Initial residual = 0.000320292, Final residual = 9.46162e-07, No Iterations 21
time step continuity errors : sum local = 6.79696e-09, global = 5.92261e-19, cumulative = 7.11209e-18
ExecutionTime = 0.223 s  ClockTime = 0 s

Time = 0.72

Courant Number mean: 0.218659 max: 0.841109
smoothSolver:  Solving for Ux, Initial residual = 0.000479542, Final residual = 2.32472e-06, No Iterations 2
smoothSolver:  Solving for Uy, Initial residual = 0.000488128, Final residual = 2.41526e-06, No Iterations 2
DICPCG:  Solving for p, Initial residual = 0.00082151, Final residual = 3.55157e-05, No Iterations 8
time step continuity errors : sum local = 2.61649e-07, global = 1.19776e-19, cumulative = 7.23187e-18
DICPCG:  Solving for p, Initial residual = 0.000302679, Final residual = 9.57242e-07, No Iterations 14
time step continuity errors : sum local = 7.60014e-09, global = 2.77602e-19, cumulative = 7.50947e-18
ExecutionTime = 0.227 s  ClockTime = 0 s

Time = 0.725

Courant Number mean: 0.218705 max: 0.840988
smoothSolver:  Solving for Ux, Initial residual = 0.000459895, Final residual = 2.25293e-06, No Iterations 2
smoothSolver:  Solving for Uy, Initial residual = 0.000464758, Final residual = 2.31503e-06, No Iterations 2
DICPCG:  Solving for p, Initial residual = 0.000777305, Final residual = 3.39523e-05, No Iterations 8
time step continuity errors : sum local = 2.47711e-07, global = 4.99452e-19, cumulative = 8.00892e-18
DICPCG:  Solving for p, Initial residual = 0.000286416, Final residual = 9.27692e-07, No Iterations 14
time step continuity errors : sum local = 7.74043e-09, global = 2.95965e-19, cumulative = 8.30488e-18
ExecutionTime = 0.23 s  ClockTime = 0 s

Time = 0.73

Courant Number mean: 0.218752 max: 0.840877
smoothSolver:  Solving for Ux, Initial residual = 0.00044138, Final residual = 2.18441e-06, No Iterations 2
smoothSolver:  Solving for Uy, Initial residual = 0.000442753, Final residual = 2.21999e-06, No Iterations 2
DICPCG:  Solving for p, Initial residual = 0.000736557, Final residual = 3.23489e-05, No Iterations 8
time step continuity errors : sum local = 2.33751e-07, global = 8.51003e-19, cumulative = 9.15589e-18
DICPCG:  Solving for p, Initial residual = 0.000271218, Final residual = 7.72925e-07, No Iterations 15
time step continuity errors : sum local = 8.25532e-09, global = 2.82565e-19, cumulative = 9.43845e-18
ExecutionTime = 0.232 s  ClockTime = 0 s

Time = 0.735

Courant Number mean: 0.218801 max: 0.840773
smoothSolver:  Solving for Ux, Initial residual = 0.000424142, Final residual = 2.11881e-06, No Iterations 2
smoothSolver:  Solving for Uy, Initial residual = 0.000422077, Final residual = 2.13335e-06, No Iterations 2
DICPCG:  Solving for p, Initial residual = 0.000697984, Final residual = 3.07475e-05, No Iterations 8
time step continuity errors : sum local = 2.21357e-07, global = 1.23424e-18, cumulative = 1.06727e-17
DICPCG:  Solving for p, Initial residual = 0.000256952, Final residual = 9.2848e-07, No Iterations 23
time step continuity errors : sum local = 6.77553e-09, global = -8.02944e-19, cumulative = 9.86975e-18
ExecutionTime = 0.237 s  ClockTime = 0 s

Time = 0.74

Courant Number mean: 0.218851 max: 0.840678
smoothSolver:  Solving for Ux, Initial residual = 0.000408049, Final residual = 2.05631e-06, No Iterations 2
smoothSolver:  Solving for Uy, Initial residual = 0.000402989, Final residual = 2.05151e-06, No Iterations 2
DICPCG:  Solving for p, Initial residual = 0.000661846, Final residual = 2.89227e-05, No Iterations 8
time step continuity errors : sum local = 2.15654e-07, global = 2.31611e-19, cumulative = 1.01014e-17
DICPCG:  Solving for p, Initial residual = 0.000243515, Final residual = 6.67336e-07, No Iterations 15
time step continuity errors : sum local = 7.26963e-09, global = -5.75552e-19, cumulative = 9.5258e-18
ExecutionTime = 0.24 s  ClockTime = 0 s

Time = 0.745

Courant Number mean: 0.218901 max: 0.840589
smoothSolver:  Solving for Ux, Initial residual = 0.000392672, Final residual = 1.99458e-06, No Iterations 2
smoothSolver:  Solving for Uy, Initial residual = 0.000385694, Final residual = 1.97637e-06, No Iterations 2
DICPCG:  Solving for p, Initial residual = 0.000626746, Final residual = 2.75634e-05, No Iterations 8
time step continuity errors : sum local = 2.06995e-07, global = -6.95657e-20, cumulative = 9.45624e-18
DICPCG:  Solving for p, Initial residual = 0.000230807, Final residual = 9.0673e-07, No Iterations 23
time step continuity errors : sum local = 6.49369e-09, global = 4.59664e-19, cumulative = 9.9159e-18
ExecutionTime = 0.243 s  ClockTime = 0 s

Time = 0.75

Courant Number mean: 0.218953 max: 0.840508
smoothSolver:  Solving for Ux, Initial residual = 0.000377993, Final residual = 1.93423e-06, No Iterations 2
smoothSolver:  Solving for Uy, Initial residual = 0.000369643, Final residual = 1.9073e-06, No Iterations 2
DICPCG:  Solving for p, Initial residual = 0.000595436, Final residual = 2.63253e-05, No Iterations 8
time step continuity errors : sum local = 1.92329e-07, global = -2.08532e-19, cumulative = 9.70737e-18
DICPCG:  Solving for p, Initial residual = 0.000219025, Final residual = 6.95056e-07, No Iterations 14
time step continuity errors : sum local = 5.61905e-09, global = -1.05052e-19, cumulative = 9.60232e-18
ExecutionTime = 0.248 s  ClockTime = 0 s

Time = 0.755

Courant Number mean: 0.219004 max: 0.840432
smoothSolver:  Solving for Ux, Initial residual = 0.000364359, Final residual = 1.87678e-06, No Iterations 2
smoothSolver:  Solving for Uy, Initial residual = 0.000354579, Final residual = 1.84045e-06, No Iterations 2
DICPCG:  Solving for p, Initial residual = 0.000564702, Final residual = 2.47736e-05, No Iterations 8
time step continuity errors : sum local = 1.83837e-07, global = 3.85797e-19, cumulative = 9.98811e-18
DICPCG:  Solving for p, Initial residual = 0.000207946, Final residual = 7.31651e-07, No Iterations 14
time step continuity errors : sum local = 6.49689e-09, global = 5.89118e-19, cumulative = 1.05772e-17
ExecutionTime = 0.251 s  ClockTime = 0 s

Time = 0.76

Courant Number mean: 0.219057 max: 0.840363
smoothSolver:  Solving for Ux, Initial residual = 0.000351291, Final residual = 1.82066e-06, No Iterations 2
smoothSolver:  Solving for Uy, Initial residual = 0.000340868, Final residual = 1.77795e-06, No Iterations 2
DICPCG:  Solving for p, Initial residual = 0.000537096, Final residual = 2.36271e-05, No Iterations 8
time step continuity errors : sum local = 1.79307e-07, global = -1.77596e-18, cumulative = 8.80128e-18
DICPCG:  Solving for p, Initial residual = 0.000197601, Final residual = 8.98936e-07, No Iterations 23
time step continuity errors : sum local = 6.44811e-09, global = -1.91823e-19, cumulative = 8.60945e-18
ExecutionTime = 0.255 s  ClockTime = 0 s

Time = 0.765

Courant Number mean: 0.219109 max: 0.840299
smoothSolver:  Solving for Ux, Initial residual = 0.000338684, Final residual = 1.76655e-06, No Iterations 2
smoothSolver:  Solving for Uy, Initial residual = 0.000328749, Final residual = 1.72195e-06, No Iterations 2
DICPCG:  Solving for p, Initial residual = 0.000512367, Final residual = 2.27508e-05, No Iterations 8
time step continuity errors : sum local = 1.68628e-07, global = 5.21455e-19, cumulative = 9.13091e-18
DICPCG:  Solving for p, Initial residual = 0.000187658, Final residual = 9.41595e-07, No Iterations 13
time step continuity errors : sum local = 7.88855e-09, global = 7.59931e-19, cumulative = 9.89084e-18
ExecutionTime = 0.258 s  ClockTime = 0 s

Time = 0.77

Courant Number mean: 0.219162 max: 0.840239
smoothSolver:  Solving for Ux, Initial residual = 0.000326904, Final residual = 1.71716e-06, No Iterations 2
smoothSolver:  Solving for Uy, Initial residual = 0.000317389, Final residual = 1.67118e-06, No Iterations 2
DICPCG:  Solving for p, Initial residual = 0.000489349, Final residual = 2.18251e-05, No Iterations 8
time step continuity errors : sum local = 1.66962e-07, global = 1.61118e-18, cumulative = 1.1502e-17
DICPCG:  Solving for p, Initial residual = 0.000178316, Final residual = 8.55968e-07, No Iterations 23
time step continuity errors : sum local = 6.1445e-09, global = -1.99599e-19, cumulative = 1.13024e-17
ExecutionTime = 0.261 s  ClockTime = 0 s

Time = 0.775

Courant Number mean: 0.219215 max: 0.840185
smoothSolver:  Solving for Ux, Initial residual = 0.000315487, Final residual = 1.668e-06, No Iterations 2
smoothSolver:  Solving for Uy, Initial residual = 0.000307671, Final residual = 1.62758e-06, No Iterations 2
DICPCG:  Solving for p, Initial residual = 0.000461448, Final residual = 2.00357e-05, No Iterations 8
time step continuity errors : sum local = 1.49942e-07, global = 2.04893e-19, cumulative = 1.15073e-17
DICPCG:  Solving for p, Initial residual = 0.00017039, Final residual = 9.82606e-07, No Iterations 13
time step continuity errors : sum local = 9.07015e-09, global = -7.41733e-19, cumulative = 1.07656e-17
ExecutionTime = 0.263 s  ClockTime = 0 s

Time = 0.78

Courant Number mean: 0.219268 max: 0.840135
smoothSolver:  Solving for Ux, Initial residual = 0.000304849, Final residual = 1.62214e-06, No Iterations 2
smoothSolver:  Solving for Uy, Initial residual = 0.000298403, Final residual = 1.58628e-06, No Iterations 2
DICPCG:  Solving for p, Initial residual = 0.000439809, Final residual = 1.90581e-05, No Iterations 8
time step continuity errors : sum local = 1.49357e-07, global = -3.53369e-19, cumulative = 1.04122e-17
DICPCG:  Solving for p, Initial residual = 0.000162329, Final residual = 8.44486e-07, No Iterations 23
time step continuity errors : sum local = 6.07193e-09, global = 3.11516e-19, cumulative = 1.07237e-17
ExecutionTime = 0.269 s  ClockTime = 0 s

Time = 0.785

Courant Number mean: 0.21932 max: 0.840089
smoothSolver:  Solving for Ux, Initial residual = 0.000294303, Final residual = 1.57573e-06, No Iterations 2
smoothSolver:  Solving for Uy, Initial residual = 0.000290206, Final residual = 1.54883e-06, No Iterations 2
DICPCG:  Solving for p, Initial residual = 0.000416823, Final residual = 1.80348e-05, No Iterations 8
time step continuity errors : sum local = 1.34781e-07, global = -1.13258e-18, cumulative = 9.59115e-18
DICPCG:  Solving for p, Initial residual = 0.000154141, Final residual = 8.66787e-07, No Iterations 13
time step continuity errors : sum local = 7.91464e-09, global = -4.88867e-20, cumulative = 9.54227e-18
ExecutionTime = 0.272 s  ClockTime = 0 s

Time = 0.79

Courant Number mean: 0.219373 max: 0.840046
smoothSolver:  Solving for Ux, Initial residual = 0.000284585, Final residual = 1.53291e-06, No Iterations 2
smoothSolver:  Solving for Uy, Initial residual = 0.000281782, Final residual = 1.51036e-06, No Iterations 2
DICPCG:  Solving for p, Initial residual = 0.000396121, Final residual = 1.70393e-05, No Iterations 8
time step continuity errors : sum local = 1.35009e-07, global = 1.67504e-19, cumulative = 9.70977e-18
DICPCG:  Solving for p, Initial residual = 0.000146928, Final residual = 7.96081e-07, No Iterations 23
time step continuity errors : sum local = 5.72105e-09, global = 5.15003e-19, cumulative = 1.02248e-17
ExecutionTime = 0.275 s  ClockTime = 0 s

Time = 0.795

Courant Number mean: 0.219426 max: 0.840007
smoothSolver:  Solving for Ux, Initial residual = 0.000274865, Final residual = 1.48908e-06, No Iterations 2
smoothSolver:  Solving for Uy, Initial residual = 0.00027431, Final residual = 1.47545e-06, No Iterations 2
DICPCG:  Solving for p, Initial residual = 0.000378014, Final residual = 1.62319e-05, No Iterations 8
time step continuity errors : sum local = 1.22557e-07, global = -3.71321e-19, cumulative = 9.85345e-18
DICPCG:  Solving for p, Initial residual = 0.000140049, Final residual = 9.65197e-07, No Iterations 13
time step continuity errors : sum local = 9.36789e-09, global = -4.12515e-19, cumulative = 9.44094e-18
ExecutionTime = 0.278 s  ClockTime = 0 s

Time = 0.8

Courant Number mean: 0.219478 max: 0.839971
smoothSolver:  Solving for Ux, Initial residual = 0.000265919, Final residual = 1.44873e-06, No Iterations 2
smoothSolver:  Solving for Uy, Initial residual = 0.000266691, Final residual = 1.43954e-06, No Iterations 2
DICPCG:  Solving for p, Initial residual = 0.000362964, Final residual = 1.58558e-05, No Iterations 8
time step continuity errors : sum local = 1.28139e-07, global = -7.43056e-19, cumulative = 8.69788e-18
DICPCG:  Solving for p, Initial residual = 0.000134121, Final residual = 7.78434e-07, No Iterations 23
time step continuity errors : sum local = 5.59394e-09, global = 1.78588e-19, cumulative = 8.87647e-18
ExecutionTime = 0.296 s  ClockTime = 0 s

Time = 0.805

Courant Number mean: 0.21953 max: 0.839939
smoothSolver:  Solving for Ux, Initial residual = 0.00025687, Final residual = 1.40781e-06, No Iterations 2
smoothSolver:  Solving for Uy, Initial residual = 0.000260132, Final residual = 1.40877e-06, No Iterations 2
DICPCG:  Solving for p, Initial residual = 0.000344312, Final residual = 1.47537e-05, No Iterations 8
time step continuity errors : sum local = 1.11322e-07, global = 2.06795e-19, cumulative = 9.08326e-18
DICPCG:  Solving for p, Initial residual = 0.000127824, Final residual = 8.639e-07, No Iterations 13
time step continuity errors : sum local = 8.39397e-09, global = 7.88386e-19, cumulative = 9.87165e-18
ExecutionTime = 0.3 s  ClockTime = 0 s

Time = 0.81

Courant Number mean: 0.219581 max: 0.839909
smoothSolver:  Solving for Ux, Initial residual = 0.000248642, Final residual = 1.37078e-06, No Iterations 2
smoothSolver:  Solving for Uy, Initial residual = 0.000253275, Final residual = 1.37625e-06, No Iterations 2
DICPCG:  Solving for p, Initial residual = 0.000327838, Final residual = 1.40977e-05, No Iterations 8
time step continuity errors : sum local = 1.15548e-07, global = -7.23948e-19, cumulative = 9.1477e-18
DICPCG:  Solving for p, Initial residual = 0.00012234, Final residual = 7.2896e-07, No Iterations 23
time step continuity errors : sum local = 5.23333e-09, global = -4.71989e-19, cumulative = 8.67571e-18
ExecutionTime = 0.304 s  ClockTime = 0 s

Time = 0.815

Courant Number mean: 0.219632 max: 0.839881
smoothSolver:  Solving for Ux, Initial residual = 0.000240433, Final residual = 1.33223e-06, No Iterations 2
smoothSolver:  Solving for Uy, Initial residual = 0.000247547, Final residual = 1.34801e-06, No Iterations 2
DICPCG:  Solving for p, Initial residual = 0.000314534, Final residual = 1.33487e-05, No Iterations 8
time step continuity errors : sum local = 1.01743e-07, global = 1.0042e-19, cumulative = 8.77613e-18
DICPCG:  Solving for p, Initial residual = 0.000117284, Final residual = 9.78681e-07, No Iterations 13
time step continuity errors : sum local = 9.76649e-09, global = -1.79333e-18, cumulative = 6.9828e-18
ExecutionTime = 0.307 s  ClockTime = 0 s

Time = 0.82

Courant Number mean: 0.219682 max: 0.839856
smoothSolver:  Solving for Ux, Initial residual = 0.000233143, Final residual = 1.29729e-06, No Iterations 2
smoothSolver:  Solving for Uy, Initial residual = 0.000241582, Final residual = 1.31744e-06, No Iterations 2
DICPCG:  Solving for p, Initial residual = 0.000300757, Final residual = 1.29843e-05, No Iterations 8
time step continuity errors : sum local = 1.08602e-07, global = -8.45379e-20, cumulative = 6.89827e-18
DICPCG:  Solving for p, Initial residual = 0.000112716, Final residual = 7.00201e-07, No Iterations 23
time step continuity errors : sum local = 5.02314e-09, global = -5.34359e-20, cumulative = 6.84483e-18
ExecutionTime = 0.31 s  ClockTime = 0 s

Time = 0.825

Courant Number mean: 0.219732 max: 0.839833
smoothSolver:  Solving for Ux, Initial residual = 0.000225687, Final residual = 1.26048e-06, No Iterations 2
smoothSolver:  Solving for Uy, Initial residual = 0.000236506, Final residual = 1.29094e-06, No Iterations 2
DICPCG:  Solving for p, Initial residual = 0.000289761, Final residual = 1.21367e-05, No Iterations 8
time step continuity errors : sum local = 9.25803e-08, global = 1.37064e-18, cumulative = 8.21547e-18
DICPCG:  Solving for p, Initial residual = 0.000108484, Final residual = 9.00087e-07, No Iterations 13
time step continuity errors : sum local = 9.02952e-09, global = -1.09998e-18, cumulative = 7.11548e-18
ExecutionTime = 0.312 s  ClockTime = 0 s

Time = 0.83

Courant Number mean: 0.219781 max: 0.839813
smoothSolver:  Solving for Ux, Initial residual = 0.000219025, Final residual = 1.22746e-06, No Iterations 2
smoothSolver:  Solving for Uy, Initial residual = 0.000230865, Final residual = 1.26129e-06, No Iterations 2
DICPCG:  Solving for p, Initial residual = 0.000277821, Final residual = 1.19283e-05, No Iterations 8
time step continuity errors : sum local = 1.01048e-07, global = -5.46601e-19, cumulative = 6.56888e-18
DICPCG:  Solving for p, Initial residual = 0.000104572, Final residual = 6.66683e-07, No Iterations 23
time step continuity errors : sum local = 4.77871e-09, global = -4.10778e-19, cumulative = 6.15811e-18
ExecutionTime = 0.315 s  ClockTime = 0 s

Time = 0.835

Courant Number mean: 0.21983 max: 0.839794
smoothSolver:  Solving for Ux, Initial residual = 0.00021213, Final residual = 1.19258e-06, No Iterations 2
smoothSolver:  Solving for Uy, Initial residual = 0.000226021, Final residual = 1.23546e-06, No Iterations 2
DICPCG:  Solving for p, Initial residual = 0.00026857, Final residual = 1.11301e-05, No Iterations 8
time step continuity errors : sum local = 8.56249e-08, global = -6.21543e-19, cumulative = 5.53656e-18
DICPCG:  Solving for p, Initial residual = 0.000100822, Final residual = 9.99759e-07, No Iterations 13
time step continuity errors : sum local = 1.00755e-08, global = -4.34518e-19, cumulative = 5.10204e-18
ExecutionTime = 0.319 s  ClockTime = 0 s

Time = 0.84

Courant Number mean: 0.219877 max: 0.839777
smoothSolver:  Solving for Ux, Initial residual = 0.000205993, Final residual = 1.1614e-06, No Iterations 2
smoothSolver:  Solving for Uy, Initial residual = 0.000220604, Final residual = 1.20635e-06, No Iterations 2
DICPCG:  Solving for p, Initial residual = 0.000258586, Final residual = 1.11649e-05, No Iterations 8
time step continuity errors : sum local = 9.61222e-08, global = 3.00763e-19, cumulative = 5.40281e-18
DICPCG:  Solving for p, Initial residual = 9.73468e-05, Final residual = 6.41872e-07, No Iterations 23
time step continuity errors : sum local = 4.59766e-09, global = -1.78042e-18, cumulative = 3.62238e-18
ExecutionTime = 0.322 s  ClockTime = 0 s

Time = 0.845

Courant Number mean: 0.219925 max: 0.839762
smoothSolver:  Solving for Ux, Initial residual = 0.000199541, Final residual = 1.12815e-06, No Iterations 2
smoothSolver:  Solving for Uy, Initial residual = 0.000216074, Final residual = 1.18141e-06, No Iterations 2
DICPCG:  Solving for p, Initial residual = 0.000250731, Final residual = 1.03069e-05, No Iterations 8
time step continuity errors : sum local = 7.94114e-08, global = 3.64704e-19, cumulative = 3.98709e-18
DICPCG:  Solving for p, Initial residual = 9.4048e-05, Final residual = 9.69828e-07, No Iterations 13
time step continuity errors : sum local = 9.75525e-09, global = 1.86116e-19, cumulative = 4.1732e-18
ExecutionTime = 0.326 s  ClockTime = 0 s

Time = 0.85

Courant Number mean: 0.219971 max: 0.839748
smoothSolver:  Solving for Ux, Initial residual = 0.000193985, Final residual = 1.09876e-06, No Iterations 2
smoothSolver:  Solving for Uy, Initial residual = 0.000210837, Final residual = 1.1531e-06, No Iterations 2
DICPCG:  Solving for p, Initial residual = 0.000241743, Final residual = 1.03702e-05, No Iterations 8
time step continuity errors : sum local = 9.04369e-08, global = 3.42122e-19, cumulative = 4.51532e-18
DICPCG:  Solving for p, Initial residual = 9.1275e-05, Final residual = 9.77888e-07, No Iterations 22
time step continuity errors : sum local = 6.9089e-09, global = 5.4263e-20, cumulative = 4.56959e-18
ExecutionTime = 0.329 s  ClockTime = 0 s

Time = 0.855

Courant Number mean: 0.220017 max: 0.839736
smoothSolver:  Solving for Ux, Initial residual = 0.000188147, Final residual = 1.06737e-06, No Iterations 2
smoothSolver:  Solving for Uy, Initial residual = 0.000206477, Final residual = 1.12869e-06, No Iterations 2
DICPCG:  Solving for p, Initial residual = 0.000233767, Final residual = 9.40374e-06, No Iterations 8
time step continuity errors : sum local = 7.30967e-08, global = 3.85714e-19, cumulative = 4.9553e-18
DICPCG:  Solving for p, Initial residual = 8.81108e-05, Final residual = 9.2827e-07, No Iterations 22
time step continuity errors : sum local = 6.59908e-09, global = -5.62483e-19, cumulative = 4.39282e-18
ExecutionTime = 0.332 s  ClockTime = 0 s

Time = 0.86

Courant Number mean: 0.220062 max: 0.839724
smoothSolver:  Solving for Ux, Initial residual = 0.00018296, Final residual = 1.03928e-06, No Iterations 2
smoothSolver:  Solving for Uy, Initial residual = 0.000201548, Final residual = 1.10171e-06, No Iterations 2
DICPCG:  Solving for p, Initial residual = 0.000225287, Final residual = 9.09007e-06, No Iterations 8
time step continuity errors : sum local = 7.62098e-08, global = -5.58512e-19, cumulative = 3.83431e-18
DICPCG:  Solving for p, Initial residual = 8.52542e-05, Final residual = 8.8951e-07, No Iterations 22
time step continuity errors : sum local = 6.2868e-09, global = -1.57826e-19, cumulative = 3.67648e-18
ExecutionTime = 0.335 s  ClockTime = 0 s

Time = 0.865

Courant Number mean: 0.220106 max: 0.839715
smoothSolver:  Solving for Ux, Initial residual = 0.000177765, Final residual = 1.0105e-06, No Iterations 2
smoothSolver:  Solving for Uy, Initial residual = 0.000197008, Final residual = 1.07657e-06, No Iterations 2
DICPCG:  Solving for p, Initial residual = 0.000218366, Final residual = 8.69978e-06, No Iterations 8
time step continuity errors : sum local = 7.14913e-08, global = 1.00891e-18, cumulative = 4.68539e-18
DICPCG:  Solving for p, Initial residual = 8.2662e-05, Final residual = 8.65372e-07, No Iterations 22
time step continuity errors : sum local = 6.1193e-09, global = -1.05962e-19, cumulative = 4.57943e-18
ExecutionTime = 0.339 s  ClockTime = 0 s

Time = 0.87

Courant Number mean: 0.22015 max: 0.839706
smoothSolver:  Solving for Ux, Initial residual = 0.000172833, Final residual = 9.82983e-07, No Iterations 2
smoothSolver:  Solving for Uy, Initial residual = 0.000192384, Final residual = 1.05125e-06, No Iterations 2
DICPCG:  Solving for p, Initial residual = 0.000211624, Final residual = 8.41154e-06, No Iterations 8
time step continuity errors : sum local = 7.00792e-08, global = -1.05217e-18, cumulative = 3.52726e-18
DICPCG:  Solving for p, Initial residual = 8.01712e-05, Final residual = 8.36001e-07, No Iterations 22
time step continuity errors : sum local = 5.90601e-09, global = -1.49223e-19, cumulative = 3.37803e-18
ExecutionTime = 0.341 s  ClockTime = 0 s

Time = 0.875

Courant Number mean: 0.220193 max: 0.839698
smoothSolver:  Solving for Ux, Initial residual = 0.000168061, Final residual = 9.56034e-07, No Iterations 2
smoothSolver:  Solving for Uy, Initial residual = 0.000187905, Final residual = 1.0266e-06, No Iterations 2
DICPCG:  Solving for p, Initial residual = 0.000205228, Final residual = 8.11759e-06, No Iterations 8
time step continuity errors : sum local = 6.76753e-08, global = 5.23605e-19, cumulative = 3.90164e-18
DICPCG:  Solving for p, Initial residual = 7.77637e-05, Final residual = 8.07988e-07, No Iterations 22
time step continuity errors : sum local = 5.70621e-09, global = 1.28196e-18, cumulative = 5.1836e-18
ExecutionTime = 0.344 s  ClockTime = 0 s

Time = 0.88

Courant Number mean: 0.220235 max: 0.839692
smoothSolver:  Solving for Ux, Initial residual = 0.00016349, Final residual = 9.29891e-07, No Iterations 2
smoothSolver:  Solving for Uy, Initial residual = 0.000183482, Final residual = 1.00211e-06, No Iterations 2
DICPCG:  Solving for p, Initial residual = 0.000199094, Final residual = 7.86141e-06, No Iterations 8
time step continuity errors : sum local = 6.58721e-08, global = -9.60605e-19, cumulative = 4.223e-18
DICPCG:  Solving for p, Initial residual = 7.54768e-05, Final residual = 7.79876e-07, No Iterations 22
time step continuity errors : sum local = 5.5103e-09, global = -4.42707e-19, cumulative = 3.78029e-18
ExecutionTime = 0.349 s  ClockTime = 0 s

Time = 0.885

Courant Number mean: 0.220277 max: 0.839686
smoothSolver:  Solving for Ux, Initial residual = 0.000159036, Final residual = 9.04385e-07, No Iterations 2
smoothSolver:  Solving for Uy, Initial residual = 0.000179167, Final residual = 9.7813e-07, No Iterations 2
DICPCG:  Solving for p, Initial residual = 0.00019335, Final residual = 7.62209e-06, No Iterations 8
time step continuity errors : sum local = 6.40608e-08, global = -6.13933e-19, cumulative = 3.16636e-18
DICPCG:  Solving for p, Initial residual = 7.32644e-05, Final residual = 7.52187e-07, No Iterations 22
time step continuity errors : sum local = 5.31868e-09, global = -1.02661e-18, cumulative = 2.13974e-18
ExecutionTime = 0.352 s  ClockTime = 0 s

Time = 0.89

Courant Number mean: 0.220317 max: 0.839681
smoothSolver:  Solving for Ux, Initial residual = 0.000154699, Final residual = 8.79525e-07, No Iterations 2
smoothSolver:  Solving for Uy, Initial residual = 0.000174904, Final residual = 9.54379e-07, No Iterations 2
DICPCG:  Solving for p, Initial residual = 0.000194196, Final residual = 7.87525e-06, No Iterations 8
time step continuity errors : sum local = 6.60076e-08, global = -9.16682e-19, cumulative = 1.22306e-18
DICPCG:  Solving for p, Initial residual = 7.22692e-05, Final residual = 7.37437e-07, No Iterations 22
time step continuity errors : sum local = 5.23215e-09, global = -2.88769e-19, cumulative = 9.34295e-19
ExecutionTime = 0.356 s  ClockTime = 0 s

Time = 0.895

Courant Number mean: 0.220357 max: 0.839677
smoothSolver:  Solving for Ux, Initial residual = 0.000150495, Final residual = 8.55366e-07, No Iterations 2
smoothSolver:  Solving for Uy, Initial residual = 0.000170743, Final residual = 9.30928e-07, No Iterations 2
DICPCG:  Solving for p, Initial residual = 0.000185356, Final residual = 7.36783e-06, No Iterations 8
time step continuity errors : sum local = 6.20461e-08, global = 9.24788e-20, cumulative = 1.02677e-18
DICPCG:  Solving for p, Initial residual = 6.92621e-05, Final residual = 6.96527e-07, No Iterations 22
time step continuity errors : sum local = 4.93688e-09, global = -7.96575e-20, cumulative = 9.47116e-19
ExecutionTime = 0.359 s  ClockTime = 0 s

Time = 0.9

Courant Number mean: 0.220397 max: 0.839674
smoothSolver:  Solving for Ux, Initial residual = 0.000146418, Final residual = 8.31845e-07, No Iterations 2
smoothSolver:  Solving for Uy, Initial residual = 0.000166648, Final residual = 9.08051e-07, No Iterations 2
DICPCG:  Solving for p, Initial residual = 0.0001802, Final residual = 7.09466e-06, No Iterations 8
time step continuity errors : sum local = 6.00711e-08, global = 2.8364e-19, cumulative = 1.23076e-18
DICPCG:  Solving for p, Initial residual = 6.71739e-05, Final residual = 6.73131e-07, No Iterations 22
time step continuity errors : sum local = 4.7747e-09, global = -3.20119e-20, cumulative = 1.19874e-18
ExecutionTime = 0.376 s  ClockTime = 0 s

Time = 0.905

Courant Number mean: 0.220435 max: 0.839671
smoothSolver:  Solving for Ux, Initial residual = 0.000142456, Final residual = 8.0891e-07, No Iterations 2
smoothSolver:  Solving for Uy, Initial residual = 0.000162636, Final residual = 8.85551e-07, No Iterations 2
DICPCG:  Solving for p, Initial residual = 0.000176331, Final residual = 6.89501e-06, No Iterations 8
time step continuity errors : sum local = 5.85499e-08, global = 7.21053e-19, cumulative = 1.9198e-18
DICPCG:  Solving for p, Initial residual = 6.53281e-05, Final residual = 9.78894e-07, No Iterations 20
time step continuity errors : sum local = 7.05791e-09, global = -1.7164e-19, cumulative = 1.74816e-18
ExecutionTime = 0.38 s  ClockTime = 0 s

Time = 0.91

Courant Number mean: 0.220473 max: 0.839669
smoothSolver:  Solving for Ux, Initial residual = 0.000138602, Final residual = 7.86552e-07, No Iterations 2
smoothSolver:  Solving for Uy, Initial residual = 0.000158694, Final residual = 8.63436e-07, No Iterations 2
DICPCG:  Solving for p, Initial residual = 0.000173584, Final residual = 6.88742e-06, No Iterations 8
time step continuity errors : sum local = 5.85389e-08, global = -2.50967e-19, cumulative = 1.49719e-18
DICPCG:  Solving for p, Initial residual = 6.36486e-05, Final residual = 9.853e-07, No Iterations 20
time step continuity errors : sum local = 7.11851e-09, global = -3.17472e-19, cumulative = 1.17972e-18
ExecutionTime = 0.383 s  ClockTime = 0 s

Time = 0.915

Courant Number mean: 0.22051 max: 0.839667
smoothSolver:  Solving for Ux, Initial residual = 0.00013487, Final residual = 7.64867e-07, No Iterations 2
smoothSolver:  Solving for Uy, Initial residual = 0.000154825, Final residual = 8.41544e-07, No Iterations 2
DICPCG:  Solving for p, Initial residual = 0.000171487, Final residual = 6.70197e-06, No Iterations 8
time step continuity errors : sum local = 5.70649e-08, global = 6.73739e-19, cumulative = 1.85346e-18
DICPCG:  Solving for p, Initial residual = 6.18892e-05, Final residual = 9.55638e-07, No Iterations 19
time step continuity errors : sum local = 6.76948e-09, global = 2.97371e-19, cumulative = 2.15083e-18
ExecutionTime = 0.388 s  ClockTime = 0 s

Time = 0.92

Courant Number mean: 0.220546 max: 0.839666
smoothSolver:  Solving for Ux, Initial residual = 0.00013124, Final residual = 9.84439e-06, No Iterations 1
smoothSolver:  Solving for Uy, Initial residual = 0.000151021, Final residual = 8.20089e-07, No Iterations 2
DICPCG:  Solving for p, Initial residual = 0.00015345, Final residual = 7.50253e-06, No Iterations 6
time step continuity errors : sum local = 5.60401e-08, global = -2.21684e-19, cumulative = 1.92914e-18
DICPCG:  Solving for p, Initial residual = 5.53689e-05, Final residual = 9.44008e-07, No Iterations 19
time step continuity errors : sum local = 6.95188e-09, global = 6.95907e-19, cumulative = 2.62505e-18
ExecutionTime = 0.39 s  ClockTime = 0 s

Time = 0.925

Courant Number mean: 0.220581 max: 0.839666
smoothSolver:  Solving for Ux, Initial residual = 0.000127789, Final residual = 9.58146e-06, No Iterations 1
smoothSolver:  Solving for Uy, Initial residual = 0.000147234, Final residual = 7.98843e-07, No Iterations 2
DICPCG:  Solving for p, Initial residual = 0.000146389, Final residual = 4.98888e-06, No Iterations 6
time step continuity errors : sum local = 4.03341e-08, global = 2.0117e-19, cumulative = 2.82622e-18
DICPCG:  Solving for p, Initial residual = 5.37068e-05, Final residual = 8.0522e-07, No Iterations 19
time step continuity errors : sum local = 5.88044e-09, global = -8.08983e-20, cumulative = 2.74532e-18
ExecutionTime = 0.393 s  ClockTime = 0 s

Time = 0.93

Courant Number mean: 0.220615 max: 0.839666
smoothSolver:  Solving for Ux, Initial residual = 0.000124331, Final residual = 9.31876e-06, No Iterations 1
smoothSolver:  Solving for Uy, Initial residual = 0.000143695, Final residual = 7.78776e-07, No Iterations 2
DICPCG:  Solving for p, Initial residual = 0.00014241, Final residual = 6.0012e-06, No Iterations 6
time step continuity errors : sum local = 4.66665e-08, global = -2.71812e-19, cumulative = 2.47351e-18
DICPCG:  Solving for p, Initial residual = 5.23232e-05, Final residual = 8.31109e-07, No Iterations 19
time step continuity errors : sum local = 6.10662e-09, global = 6.94087e-19, cumulative = 3.1676e-18
ExecutionTime = 0.395 s  ClockTime = 0 s

Time = 0.935

Courant Number mean: 0.220649 max: 0.839666
smoothSolver:  Solving for Ux, Initial residual = 0.00012104, Final residual = 9.06922e-06, No Iterations 1
smoothSolver:  Solving for Uy, Initial residual = 0.00014008, Final residual = 7.58448e-07, No Iterations 2
DICPCG:  Solving for p, Initial residual = 0.000138263, Final residual = 5.44181e-06, No Iterations 6
time step continuity errors : sum local = 4.29404e-08, global = -7.61585e-19, cumulative = 2.40601e-18
DICPCG:  Solving for p, Initial residual = 5.08908e-05, Final residual = 7.86439e-07, No Iterations 19
time step continuity errors : sum local = 5.77148e-09, global = 1.62955e-19, cumulative = 2.56897e-18
ExecutionTime = 0.398 s  ClockTime = 0 s

Time = 0.94

Courant Number mean: 0.220682 max: 0.839667
smoothSolver:  Solving for Ux, Initial residual = 0.000117805, Final residual = 8.82435e-06, No Iterations 1
smoothSolver:  Solving for Uy, Initial residual = 0.000136591, Final residual = 7.38802e-07, No Iterations 2
DICPCG:  Solving for p, Initial residual = 0.000134666, Final residual = 5.41565e-06, No Iterations 6
time step continuity errors : sum local = 4.25911e-08, global = -1.71723e-19, cumulative = 2.39725e-18
DICPCG:  Solving for p, Initial residual = 4.9542e-05, Final residual = 7.63125e-07, No Iterations 19
time step continuity errors : sum local = 5.604e-09, global = 1.36071e-18, cumulative = 3.75796e-18
ExecutionTime = 0.401 s  ClockTime = 0 s

Time = 0.945

Courant Number mean: 0.220715 max: 0.839668
smoothSolver:  Solving for Ux, Initial residual = 0.000114664, Final residual = 8.58664e-06, No Iterations 1
smoothSolver:  Solving for Uy, Initial residual = 0.000133151, Final residual = 9.74559e-06, No Iterations 1
DICPCG:  Solving for p, Initial residual = 0.000128384, Final residual = 4.71953e-06, No Iterations 8
time step continuity errors : sum local = 4.26462e-08, global = -1.28048e-19, cumulative = 3.62991e-18
DICPCG:  Solving for p, Initial residual = 4.34749e-05, Final residual = 7.42505e-07, No Iterations 19
time step continuity errors : sum local = 5.23854e-09, global = 8.91783e-19, cumulative = 4.52169e-18
ExecutionTime = 0.405 s  ClockTime = 0 s

Time = 0.95

Courant Number mean: 0.220747 max: 0.839669
smoothSolver:  Solving for Ux, Initial residual = 0.000111578, Final residual = 8.35262e-06, No Iterations 1
smoothSolver:  Solving for Uy, Initial residual = 0.000129946, Final residual = 9.50587e-06, No Iterations 1
DICPCG:  Solving for p, Initial residual = 0.000126531, Final residual = 5.0539e-06, No Iterations 8
time step continuity errors : sum local = 4.32766e-08, global = -5.557e-19, cumulative = 3.96599e-18
DICPCG:  Solving for p, Initial residual = 4.29275e-05, Final residual = 7.60663e-07, No Iterations 19
time step continuity errors : sum local = 5.37277e-09, global = -3.1954e-19, cumulative = 3.64645e-18
ExecutionTime = 0.408 s  ClockTime = 0 s

Time = 0.955

Courant Number mean: 0.220778 max: 0.839671
smoothSolver:  Solving for Ux, Initial residual = 0.000108658, Final residual = 8.13203e-06, No Iterations 1
smoothSolver:  Solving for Uy, Initial residual = 0.000126618, Final residual = 9.25878e-06, No Iterations 1
DICPCG:  Solving for p, Initial residual = 0.000122798, Final residual = 4.76181e-06, No Iterations 8
time step continuity errors : sum local = 4.15829e-08, global = 1.43731e-18, cumulative = 5.08376e-18
DICPCG:  Solving for p, Initial residual = 4.17019e-05, Final residual = 7.22227e-07, No Iterations 19
time step continuity errors : sum local = 5.10165e-09, global = -6.29567e-19, cumulative = 4.4542e-18
ExecutionTime = 0.411 s  ClockTime = 0 s

Time = 0.96

Courant Number mean: 0.220808 max: 0.839672
smoothSolver:  Solving for Ux, Initial residual = 0.000105767, Final residual = 7.91414e-06, No Iterations 1
smoothSolver:  Solving for Uy, Initial residual = 0.000123438, Final residual = 9.02199e-06, No Iterations 1
DICPCG:  Solving for p, Initial residual = 0.0001196, Final residual = 4.65669e-06, No Iterations 8
time step continuity errors : sum local = 4.04893e-08, global = 1.00825e-18, cumulative = 5.46245e-18
DICPCG:  Solving for p, Initial residual = 4.06332e-05, Final residual = 7.03017e-07, No Iterations 19
time step continuity errors : sum local = 4.9664e-09, global = -3.58417e-19, cumulative = 5.10403e-18
ExecutionTime = 0.413 s  ClockTime = 0 s

Time = 0.965

Courant Number mean: 0.220838 max: 0.839674
smoothSolver:  Solving for Ux, Initial residual = 0.000102963, Final residual = 7.70301e-06, No Iterations 1
smoothSolver:  Solving for Uy, Initial residual = 0.000120307, Final residual = 8.7893e-06, No Iterations 1
DICPCG:  Solving for p, Initial residual = 0.000116454, Final residual = 4.53463e-06, No Iterations 8
time step continuity errors : sum local = 3.95689e-08, global = -8.06005e-19, cumulative = 4.29803e-18
DICPCG:  Solving for p, Initial residual = 3.95942e-05, Final residual = 6.69982e-07, No Iterations 19
time step continuity errors : sum local = 4.735e-09, global = 1.52036e-18, cumulative = 5.81838e-18
ExecutionTime = 0.416 s  ClockTime = 0 s

Time = 0.97

Courant Number mean: 0.220867 max: 0.839676
smoothSolver:  Solving for Ux, Initial residual = 0.000100223, Final residual = 7.49736e-06, No Iterations 1
smoothSolver:  Solving for Uy, Initial residual = 0.000117246, Final residual = 8.56217e-06, No Iterations 1
DICPCG:  Solving for p, Initial residual = 0.000119447, Final residual = 4.42929e-06, No Iterations 8
time step continuity errors : sum local = 3.8583e-08, global = -6.54796e-19, cumulative = 5.16359e-18
DICPCG:  Solving for p, Initial residual = 3.86404e-05, Final residual = 7.04359e-07, No Iterations 19
time step continuity errors : sum local = 4.99292e-09, global = -9.81863e-19, cumulative = 4.18172e-18
ExecutionTime = 0.419 s  ClockTime = 0 s

Time = 0.975

Courant Number mean: 0.220895 max: 0.839679
smoothSolver:  Solving for Ux, Initial residual = 9.75444e-05, Final residual = 7.29594e-06, No Iterations 1
smoothSolver:  Solving for Uy, Initial residual = 0.000114288, Final residual = 8.3429e-06, No Iterations 1
DICPCG:  Solving for p, Initial residual = 0.00011465, Final residual = 4.38342e-06, No Iterations 8
time step continuity errors : sum local = 3.8276e-08, global = -2.45094e-19, cumulative = 3.93663e-18
DICPCG:  Solving for p, Initial residual = 3.75762e-05, Final residual = 6.59556e-07, No Iterations 19
time step continuity errors : sum local = 4.67944e-09, global = 1.12331e-19, cumulative = 4.04896e-18
ExecutionTime = 0.422 s  ClockTime = 0 s

Time = 0.98

Courant Number mean: 0.220923 max: 0.839681
smoothSolver:  Solving for Ux, Initial residual = 9.49437e-05, Final residual = 7.10098e-06, No Iterations 1
smoothSolver:  Solving for Uy, Initial residual = 0.000111361, Final residual = 8.12593e-06, No Iterations 1
DICPCG:  Solving for p, Initial residual = 0.000108396, Final residual = 4.28989e-06, No Iterations 8
time step continuity errors : sum local = 3.74475e-08, global = -1.31604e-19, cumulative = 3.91736e-18
DICPCG:  Solving for p, Initial residual = 3.65926e-05, Final residual = 5.88591e-07, No Iterations 19
time step continuity errors : sum local = 4.17185e-09, global = -1.72467e-19, cumulative = 3.74489e-18
ExecutionTime = 0.426 s  ClockTime = 0 s

Time = 0.985

Courant Number mean: 0.22095 max: 0.839684
smoothSolver:  Solving for Ux, Initial residual = 9.24223e-05, Final residual = 6.91161e-06, No Iterations 1
smoothSolver:  Solving for Uy, Initial residual = 0.000108476, Final residual = 7.91217e-06, No Iterations 1
DICPCG:  Solving for p, Initial residual = 0.00010636, Final residual = 4.14067e-06, No Iterations 8
time step continuity errors : sum local = 3.62084e-08, global = -8.88557e-19, cumulative = 2.85633e-18
DICPCG:  Solving for p, Initial residual = 3.56691e-05, Final residual = 5.78444e-07, No Iterations 19
time step continuity errors : sum local = 4.10148e-09, global = 2.106e-19, cumulative = 3.06693e-18
ExecutionTime = 0.429 s  ClockTime = 0 s

Time = 0.99

Courant Number mean: 0.220977 max: 0.839687
smoothSolver:  Solving for Ux, Initial residual = 8.99689e-05, Final residual = 6.72664e-06, No Iterations 1
smoothSolver:  Solving for Uy, Initial residual = 0.000105666, Final residual = 7.7042e-06, No Iterations 1
DICPCG:  Solving for p, Initial residual = 0.000103256, Final residual = 4.0517e-06, No Iterations 8
time step continuity errors : sum local = 3.54649e-08, global = -6.59511e-19, cumulative = 2.40742e-18
DICPCG:  Solving for p, Initial residual = 3.47759e-05, Final residual = 5.47772e-07, No Iterations 19
time step continuity errors : sum local = 3.88488e-09, global = -9.40504e-19, cumulative = 1.46692e-18
ExecutionTime = 0.432 s  ClockTime = 0 s

Time = 0.995

Courant Number mean: 0.221002 max: 0.83969
smoothSolver:  Solving for Ux, Initial residual = 8.75832e-05, Final residual = 6.54656e-06, No Iterations 1
smoothSolver:  Solving for Uy, Initial residual = 0.000102917, Final residual = 7.50074e-06, No Iterations 1
DICPCG:  Solving for p, Initial residual = 0.000100517, Final residual = 3.93716e-06, No Iterations 8
time step continuity errors : sum local = 3.44981e-08, global = 4.87292e-19, cumulative = 1.95421e-18
DICPCG:  Solving for p, Initial residual = 3.38984e-05, Final residual = 5.23292e-07, No Iterations 19
time step continuity errors : sum local = 3.71211e-09, global = 9.34714e-21, cumulative = 1.96356e-18
ExecutionTime = 0.435 s  ClockTime = 0 s

Time = 1

Courant Number mean: 0.221028 max: 0.839693
smoothSolver:  Solving for Ux, Initial residual = 8.52594e-05, Final residual = 6.37106e-06, No Iterations 1
smoothSolver:  Solving for Uy, Initial residual = 0.000100231, Final residual = 7.30215e-06, No Iterations 1
DICPCG:  Solving for p, Initial residual = 9.78215e-05, Final residual = 3.83516e-06, No Iterations 8
time step continuity errors : sum local = 3.36412e-08, global = 2.80993e-19, cumulative = 2.24455e-18
DICPCG:  Solving for p, Initial residual = 3.3045e-05, Final residual = 4.99086e-07, No Iterations 19
time step continuity errors : sum local = 3.54145e-09, global = -3.12013e-19, cumulative = 1.93254e-18
ExecutionTime = 0.454 s  ClockTime = 0 s

Time = 1.005

Courant Number mean: 0.221053 max: 0.839696
smoothSolver:  Solving for Ux, Initial residual = 8.30023e-05, Final residual = 6.20049e-06, No Iterations 1
smoothSolver:  Solving for Uy, Initial residual = 9.76058e-05, Final residual = 7.10861e-06, No Iterations 1
DICPCG:  Solving for p, Initial residual = 9.52153e-05, Final residual = 3.73328e-06, No Iterations 8
time step continuity errors : sum local = 3.27792e-08, global = -6.39576e-19, cumulative = 1.29296e-18
DICPCG:  Solving for p, Initial residual = 3.22119e-05, Final residual = 9.89101e-07, No Iterations 18
time step continuity errors : sum local = 7.07374e-09, global = -3.65945e-19, cumulative = 9.27017e-19
ExecutionTime = 0.459 s  ClockTime = 0 s

Time = 1.01

Courant Number mean: 0.221077 max: 0.839699
smoothSolver:  Solving for Ux, Initial residual = 8.08143e-05, Final residual = 6.03444e-06, No Iterations 1
smoothSolver:  Solving for Uy, Initial residual = 9.50392e-05, Final residual = 6.91938e-06, No Iterations 1
DICPCG:  Solving for p, Initial residual = 9.27401e-05, Final residual = 3.67814e-06, No Iterations 8
time step continuity errors : sum local = 3.22704e-08, global = -1.28461e-19, cumulative = 7.98555e-19
DICPCG:  Solving for p, Initial residual = 3.14381e-05, Final residual = 9.51592e-07, No Iterations 18
time step continuity errors : sum local = 6.80647e-09, global = -2.33596e-19, cumulative = 5.6496e-19
ExecutionTime = 0.461 s  ClockTime = 0 s

Time = 1.015

Courant Number mean: 0.2211 max: 0.839703
smoothSolver:  Solving for Ux, Initial residual = 7.86807e-05, Final residual = 5.87276e-06, No Iterations 1
smoothSolver:  Solving for Uy, Initial residual = 9.2537e-05, Final residual = 6.73516e-06, No Iterations 1
DICPCG:  Solving for p, Initial residual = 9.02619e-05, Final residual = 3.56007e-06, No Iterations 8
time step continuity errors : sum local = 3.12737e-08, global = -7.66631e-19, cumulative = -2.01671e-19
DICPCG:  Solving for p, Initial residual = 3.06252e-05, Final residual = 9.19935e-07, No Iterations 18
time step continuity errors : sum local = 6.58044e-09, global = -9.66395e-19, cumulative = -1.16807e-18
ExecutionTime = 0.465 s  ClockTime = 0 s

Time = 1.02

Courant Number mean: 0.221123 max: 0.839706
smoothSolver:  Solving for Ux, Initial residual = 7.66011e-05, Final residual = 5.71524e-06, No Iterations 1
smoothSolver:  Solving for Uy, Initial residual = 9.00933e-05, Final residual = 6.55533e-06, No Iterations 1
DICPCG:  Solving for p, Initial residual = 8.78988e-05, Final residual = 3.46935e-06, No Iterations 8
time step continuity errors : sum local = 3.05092e-08, global = -1.57495e-19, cumulative = -1.32556e-18
DICPCG:  Solving for p, Initial residual = 2.98631e-05, Final residual = 8.88012e-07, No Iterations 18
time step continuity errors : sum local = 6.35242e-09, global = -3.47747e-19, cumulative = -1.67331e-18
ExecutionTime = 0.47 s  ClockTime = 0 s

Time = 1.025

Courant Number mean: 0.221146 max: 0.839709
smoothSolver:  Solving for Ux, Initial residual = 7.45741e-05, Final residual = 5.56179e-06, No Iterations 1
smoothSolver:  Solving for Uy, Initial residual = 8.77083e-05, Final residual = 6.37994e-06, No Iterations 1
DICPCG:  Solving for p, Initial residual = 8.55909e-05, Final residual = 3.37585e-06, No Iterations 8
time step continuity errors : sum local = 2.97099e-08, global = -3.7736e-19, cumulative = -2.05067e-18
DICPCG:  Solving for p, Initial residual = 2.91159e-05, Final residual = 8.57623e-07, No Iterations 18
time step continuity errors : sum local = 6.13518e-09, global = 2.8058e-19, cumulative = -1.77009e-18
ExecutionTime = 0.473 s  ClockTime = 0 s

Time = 1.03

Courant Number mean: 0.221168 max: 0.839713
smoothSolver:  Solving for Ux, Initial residual = 7.26022e-05, Final residual = 5.41235e-06, No Iterations 1
smoothSolver:  Solving for Uy, Initial residual = 8.53819e-05, Final residual = 6.2089e-06, No Iterations 1
DICPCG:  Solving for p, Initial residual = 8.33528e-05, Final residual = 3.28687e-06, No Iterations 8
time step continuity errors : sum local = 2.8951e-08, global = 3.15652e-19, cumulative = -1.45444e-18
DICPCG:  Solving for p, Initial residual = 2.83888e-05, Final residual = 8.2869e-07, No Iterations 18
time step continuity errors : sum local = 5.92822e-09, global = 9.52912e-20, cumulative = -1.35915e-18
ExecutionTime = 0.476 s  ClockTime = 0 s

Time = 1.035

Courant Number mean: 0.221189 max: 0.839717
smoothSolver:  Solving for Ux, Initial residual = 7.06815e-05, Final residual = 5.26681e-06, No Iterations 1
smoothSolver:  Solving for Uy, Initial residual = 8.31139e-05, Final residual = 6.04214e-06, No Iterations 1
DICPCG:  Solving for p, Initial residual = 8.11931e-05, Final residual = 3.1996e-06, No Iterations 8
time step continuity errors : sum local = 2.82034e-08, global = -1.50133e-19, cumulative = -1.50928e-18
DICPCG:  Solving for p, Initial residual = 2.76795e-05, Final residual = 8.01041e-07, No Iterations 18
time step continuity errors : sum local = 5.73033e-09, global = 1.07517e-18, cumulative = -4.34109e-19
ExecutionTime = 0.478 s  ClockTime = 0 s

Time = 1.04

Courant Number mean: 0.22121 max: 0.83972
smoothSolver:  Solving for Ux, Initial residual = 6.88098e-05, Final residual = 5.12532e-06, No Iterations 1
smoothSolver:  Solving for Uy, Initial residual = 8.09027e-05, Final residual = 5.87959e-06, No Iterations 1
DICPCG:  Solving for p, Initial residual = 7.90958e-05, Final residual = 3.11524e-06, No Iterations 8
time step continuity errors : sum local = 2.74792e-08, global = -2.91995e-20, cumulative = -4.63309e-19
DICPCG:  Solving for p, Initial residual = 2.6988e-05, Final residual = 7.74522e-07, No Iterations 18
time step continuity errors : sum local = 5.54041e-09, global = 6.04421e-19, cumulative = 1.41112e-19
ExecutionTime = 0.481 s  ClockTime = 0 s

Time = 1.045

Courant Number mean: 0.221231 max: 0.839724
smoothSolver:  Solving for Ux, Initial residual = 6.69858e-05, Final residual = 4.98772e-06, No Iterations 1
smoothSolver:  Solving for Uy, Initial residual = 7.87468e-05, Final residual = 5.72118e-06, No Iterations 1
[...]
time step continuity errors : sum local = 7.0186e-09, global = 3.36166e-19, cumulative = -6.50334e-19
DICPCG:  Solving for p, Initial residual = 9.72088e-07, Final residual = 9.72088e-07, No Iterations 0
time step continuity errors : sum local = 7.8761e-09, global = 1.58157e-19, cumulative = -4.92177e-19
ExecutionTime = 2.085 s  ClockTime = 2 s

Time = 1.87

Courant Number mean: 0.222015 max: 0.839933
smoothSolver:  Solving for Ux, Initial residual = 1.28728e-06, Final residual = 1.28728e-06, No Iterations 0
smoothSolver:  Solving for Uy, Initial residual = 1.48161e-06, Final residual = 1.48161e-06, No Iterations 0
DICPCG:  Solving for p, Initial residual = 1.90972e-06, Final residual = 8.75652e-07, No Iterations 2
time step continuity errors : sum local = 7.7002e-09, global = -6.31552e-19, cumulative = -1.12373e-18
DICPCG:  Solving for p, Initial residual = 1.09382e-06, Final residual = 9.84276e-07, No Iterations 1
time step continuity errors : sum local = 8.52603e-09, global = 1.08361e-20, cumulative = -1.11289e-18
ExecutionTime = 2.089 s  ClockTime = 2 s

Time = 1.875

Courant Number mean: 0.222016 max: 0.839933
smoothSolver:  Solving for Ux, Initial residual = 1.26596e-06, Final residual = 1.26596e-06, No Iterations 0
smoothSolver:  Solving for Uy, Initial residual = 1.44245e-06, Final residual = 1.44245e-06, No Iterations 0
DICPCG:  Solving for p, Initial residual = 2.02516e-06, Final residual = 6.69438e-07, No Iterations 2
time step continuity errors : sum local = 6.28056e-09, global = 1.34433e-18, cumulative = 2.3144e-19
DICPCG:  Solving for p, Initial residual = 7.93677e-07, Final residual = 7.93677e-07, No Iterations 0
time step continuity errors : sum local = 7.18703e-09, global = -2.7512e-19, cumulative = -4.36801e-20
ExecutionTime = 2.091 s  ClockTime = 2 s

Time = 1.88

Courant Number mean: 0.222016 max: 0.839933
smoothSolver:  Solving for Ux, Initial residual = 1.24305e-06, Final residual = 1.24305e-06, No Iterations 0
smoothSolver:  Solving for Uy, Initial residual = 1.40954e-06, Final residual = 1.40954e-06, No Iterations 0
DICPCG:  Solving for p, Initial residual = 1.43122e-06, Final residual = 8.5837e-07, No Iterations 2
time step continuity errors : sum local = 7.82246e-09, global = -1.44426e-19, cumulative = -1.88106e-19
DICPCG:  Solving for p, Initial residual = 1.23343e-06, Final residual = 7.32539e-07, No Iterations 1
time step continuity errors : sum local = 6.98767e-09, global = 5.61656e-19, cumulative = 3.7355e-19
ExecutionTime = 2.093 s  ClockTime = 2 s

Time = 1.885

Courant Number mean: 0.222016 max: 0.839934
smoothSolver:  Solving for Ux, Initial residual = 1.19477e-06, Final residual = 1.19477e-06, No Iterations 0
smoothSolver:  Solving for Uy, Initial residual = 1.39346e-06, Final residual = 1.39346e-06, No Iterations 0
DICPCG:  Solving for p, Initial residual = 1.34948e-06, Final residual = 5.76323e-07, No Iterations 2
time step continuity errors : sum local = 5.96421e-09, global = 2.36739e-19, cumulative = 6.10289e-19
DICPCG:  Solving for p, Initial residual = 6.47097e-07, Final residual = 6.47097e-07, No Iterations 0
time step continuity errors : sum local = 6.49921e-09, global = -1.9265e-19, cumulative = 4.17639e-19
ExecutionTime = 2.096 s  ClockTime = 2 s

Time = 1.89

Courant Number mean: 0.222017 max: 0.839934
smoothSolver:  Solving for Ux, Initial residual = 1.17919e-06, Final residual = 1.17919e-06, No Iterations 0
smoothSolver:  Solving for Uy, Initial residual = 1.36678e-06, Final residual = 1.36678e-06, No Iterations 0
DICPCG:  Solving for p, Initial residual = 1.33207e-06, Final residual = 6.71078e-07, No Iterations 2
time step continuity errors : sum local = 6.79494e-09, global = -7.65638e-19, cumulative = -3.48e-19
DICPCG:  Solving for p, Initial residual = 9.78519e-07, Final residual = 9.78519e-07, No Iterations 0
time step continuity errors : sum local = 8.99591e-09, global = 1.14399e-18, cumulative = 7.95991e-19
ExecutionTime = 2.098 s  ClockTime = 2 s

Time = 1.895

Courant Number mean: 0.222017 max: 0.839934
smoothSolver:  Solving for Ux, Initial residual = 1.14344e-06, Final residual = 1.14344e-06, No Iterations 0
smoothSolver:  Solving for Uy, Initial residual = 1.3402e-06, Final residual = 1.3402e-06, No Iterations 0
DICPCG:  Solving for p, Initial residual = 2.01051e-06, Final residual = 7.82861e-07, No Iterations 2
time step continuity errors : sum local = 7.73972e-09, global = 2.24579e-19, cumulative = 1.02057e-18
DICPCG:  Solving for p, Initial residual = 1.07289e-06, Final residual = 7.39304e-07, No Iterations 2
time step continuity errors : sum local = 7.4536e-09, global = 4.78028e-19, cumulative = 1.4986e-18
ExecutionTime = 2.1 s  ClockTime = 2 s

Time = 1.9

Courant Number mean: 0.222017 max: 0.839934
smoothSolver:  Solving for Ux, Initial residual = 1.1199e-06, Final residual = 1.1199e-06, No Iterations 0
smoothSolver:  Solving for Uy, Initial residual = 1.3118e-06, Final residual = 1.3118e-06, No Iterations 0
DICPCG:  Solving for p, Initial residual = 1.14598e-06, Final residual = 7.96424e-07, No Iterations 1
time step continuity errors : sum local = 7.86481e-09, global = -8.80451e-19, cumulative = 6.18147e-19
DICPCG:  Solving for p, Initial residual = 9.44861e-07, Final residual = 9.44861e-07, No Iterations 0
time step continuity errors : sum local = 8.94361e-09, global = 1.17551e-18, cumulative = 1.79365e-18
ExecutionTime = 2.119 s  ClockTime = 2 s

Time = 1.905

Courant Number mean: 0.222018 max: 0.839934
smoothSolver:  Solving for Ux, Initial residual = 1.10792e-06, Final residual = 1.10792e-06, No Iterations 0
smoothSolver:  Solving for Uy, Initial residual = 1.26922e-06, Final residual = 1.26922e-06, No Iterations 0
DICPCG:  Solving for p, Initial residual = 1.88436e-06, Final residual = 7.91621e-07, No Iterations 2
time step continuity errors : sum local = 7.98404e-09, global = -1.33424e-19, cumulative = 1.66023e-18
DICPCG:  Solving for p, Initial residual = 9.02344e-07, Final residual = 9.02344e-07, No Iterations 0
time step continuity errors : sum local = 8.77671e-09, global = 7.39499e-20, cumulative = 1.73418e-18
ExecutionTime = 2.124 s  ClockTime = 2 s

Time = 1.91

Courant Number mean: 0.222018 max: 0.839934
smoothSolver:  Solving for Ux, Initial residual = 1.07226e-06, Final residual = 1.07226e-06, No Iterations 0
smoothSolver:  Solving for Uy, Initial residual = 1.2485e-06, Final residual = 1.2485e-06, No Iterations 0
DICPCG:  Solving for p, Initial residual = 1.42994e-06, Final residual = 9.04967e-07, No Iterations 1
time step continuity errors : sum local = 8.77982e-09, global = -3.76781e-19, cumulative = 1.3574e-18
DICPCG:  Solving for p, Initial residual = 1.19025e-06, Final residual = 9.24009e-07, No Iterations 1
time step continuity errors : sum local = 9.02969e-09, global = 7.40161e-19, cumulative = 2.09756e-18
ExecutionTime = 2.127 s  ClockTime = 2 s

Time = 1.915

Courant Number mean: 0.222018 max: 0.839934
smoothSolver:  Solving for Ux, Initial residual = 1.05895e-06, Final residual = 1.05895e-06, No Iterations 0
smoothSolver:  Solving for Uy, Initial residual = 1.21967e-06, Final residual = 1.21967e-06, No Iterations 0
DICPCG:  Solving for p, Initial residual = 1.62075e-06, Final residual = 8.94537e-07, No Iterations 2
time step continuity errors : sum local = 8.94164e-09, global = -8.51996e-20, cumulative = 2.01236e-18
DICPCG:  Solving for p, Initial residual = 1.01009e-06, Final residual = 6.68802e-07, No Iterations 1
time step continuity errors : sum local = 7.36921e-09, global = -4.69011e-20, cumulative = 1.96546e-18
ExecutionTime = 2.129 s  ClockTime = 2 s

Time = 1.92

Courant Number mean: 0.222019 max: 0.839934
smoothSolver:  Solving for Ux, Initial residual = 1.02658e-06, Final residual = 1.02658e-06, No Iterations 0
smoothSolver:  Solving for Uy, Initial residual = 1.20184e-06, Final residual = 1.20184e-06, No Iterations 0
DICPCG:  Solving for p, Initial residual = 1.12176e-06, Final residual = 6.35758e-07, No Iterations 1
time step continuity errors : sum local = 7.16463e-09, global = -4.13838e-19, cumulative = 1.55162e-18
DICPCG:  Solving for p, Initial residual = 8.68901e-07, Final residual = 8.68901e-07, No Iterations 0
time step continuity errors : sum local = 8.84711e-09, global = 6.41892e-20, cumulative = 1.61581e-18
ExecutionTime = 2.131 s  ClockTime = 2 s

Time = 1.925

Courant Number mean: 0.222019 max: 0.839934
smoothSolver:  Solving for Ux, Initial residual = 1.01751e-06, Final residual = 1.01751e-06, No Iterations 0
smoothSolver:  Solving for Uy, Initial residual = 1.16962e-06, Final residual = 1.16962e-06, No Iterations 0
DICPCG:  Solving for p, Initial residual = 1.90254e-06, Final residual = 8.65046e-07, No Iterations 2
time step continuity errors : sum local = 8.90459e-09, global = 1.0846e-18, cumulative = 2.70041e-18
DICPCG:  Solving for p, Initial residual = 9.9256e-07, Final residual = 9.9256e-07, No Iterations 0
time step continuity errors : sum local = 9.82724e-09, global = -5.89449e-19, cumulative = 2.11096e-18
ExecutionTime = 2.134 s  ClockTime = 2 s

Time = 1.93

Courant Number mean: 0.222019 max: 0.839935
smoothSolver:  Solving for Ux, Initial residual = 9.85184e-07, Final residual = 9.85184e-07, No Iterations 0
smoothSolver:  Solving for Uy, Initial residual = 1.14098e-06, Final residual = 1.14098e-06, No Iterations 0
DICPCG:  Solving for p, Initial residual = 1.42669e-06, Final residual = 9.48897e-07, No Iterations 2
time step continuity errors : sum local = 9.59812e-09, global = 8.66885e-20, cumulative = 2.19765e-18
DICPCG:  Solving for p, Initial residual = 1.36833e-06, Final residual = 9.92246e-07, No Iterations 1
time step continuity errors : sum local = 9.9199e-09, global = -1.1138e-18, cumulative = 1.08385e-18
ExecutionTime = 2.137 s  ClockTime = 2 s

Time = 1.935

Courant Number mean: 0.222019 max: 0.839935
smoothSolver:  Solving for Ux, Initial residual = 9.64035e-07, Final residual = 9.64035e-07, No Iterations 0
smoothSolver:  Solving for Uy, Initial residual = 1.12758e-06, Final residual = 1.12758e-06, No Iterations 0
DICPCG:  Solving for p, Initial residual = 1.93902e-06, Final residual = 5.9534e-07, No Iterations 2
time step continuity errors : sum local = 7.13452e-09, global = -6.82672e-19, cumulative = 4.01177e-19
DICPCG:  Solving for p, Initial residual = 7.03053e-07, Final residual = 7.03053e-07, No Iterations 0
time step continuity errors : sum local = 7.91685e-09, global = -7.13526e-19, cumulative = -3.12349e-19
ExecutionTime = 2.139 s  ClockTime = 2 s

Time = 1.94

Courant Number mean: 0.22202 max: 0.839935
smoothSolver:  Solving for Ux, Initial residual = 9.4381e-07, Final residual = 9.4381e-07, No Iterations 0
smoothSolver:  Solving for Uy, Initial residual = 1.09853e-06, Final residual = 1.09853e-06, No Iterations 0
DICPCG:  Solving for p, Initial residual = 1.26935e-06, Final residual = 8.88236e-07, No Iterations 2
time step continuity errors : sum local = 9.29382e-09, global = 6.35936e-19, cumulative = 3.23588e-19
DICPCG:  Solving for p, Initial residual = 1.24312e-06, Final residual = 9.31557e-07, No Iterations 1
time step continuity errors : sum local = 9.62662e-09, global = 4.89277e-19, cumulative = 8.12865e-19
ExecutionTime = 2.141 s  ClockTime = 2 s

Time = 1.945

Courant Number mean: 0.22202 max: 0.839935
smoothSolver:  Solving for Ux, Initial residual = 9.21279e-07, Final residual = 9.21279e-07, No Iterations 0
smoothSolver:  Solving for Uy, Initial residual = 1.07554e-06, Final residual = 1.07554e-06, No Iterations 0
DICPCG:  Solving for p, Initial residual = 1.61778e-06, Final residual = 9.2126e-07, No Iterations 1
time step continuity errors : sum local = 9.57056e-09, global = -9.09237e-19, cumulative = -9.63718e-20
DICPCG:  Solving for p, Initial residual = 1.21154e-06, Final residual = 6.68132e-07, No Iterations 2
time step continuity errors : sum local = 7.77201e-09, global = 3.40302e-19, cumulative = 2.4393e-19
ExecutionTime = 2.145 s  ClockTime = 2 s

Time = 1.95

Courant Number mean: 0.22202 max: 0.839935
smoothSolver:  Solving for Ux, Initial residual = 8.97951e-07, Final residual = 8.97951e-07, No Iterations 0
smoothSolver:  Solving for Uy, Initial residual = 1.05387e-06, Final residual = 1.05387e-06, No Iterations 0
DICPCG:  Solving for p, Initial residual = 1.26216e-06, Final residual = 5.84378e-07, No Iterations 2
time step continuity errors : sum local = 7.18319e-09, global = 4.59747e-19, cumulative = 7.03677e-19
DICPCG:  Solving for p, Initial residual = 9.64187e-07, Final residual = 9.64187e-07, No Iterations 0
time step continuity errors : sum local = 9.90788e-09, global = -9.37527e-19, cumulative = -2.33849e-19
ExecutionTime = 2.148 s  ClockTime = 2 s

Time = 1.955

Courant Number mean: 0.22202 max: 0.839935
smoothSolver:  Solving for Ux, Initial residual = 8.94748e-07, Final residual = 8.94748e-07, No Iterations 0
smoothSolver:  Solving for Uy, Initial residual = 1.03569e-06, Final residual = 1.03569e-06, No Iterations 0
DICPCG:  Solving for p, Initial residual = 2.10973e-06, Final residual = 9.82005e-07, No Iterations 2
time step continuity errors : sum local = 1.00424e-08, global = -1.37064e-19, cumulative = -3.70913e-19
DICPCG:  Solving for p, Initial residual = 1.19824e-06, Final residual = 8.01991e-07, No Iterations 2
time step continuity errors : sum local = 8.74879e-09, global = -1.39628e-18, cumulative = -1.76719e-18
ExecutionTime = 2.15 s  ClockTime = 2 s

Time = 1.96

Courant Number mean: 0.222021 max: 0.839935
smoothSolver:  Solving for Ux, Initial residual = 8.61538e-07, Final residual = 8.61538e-07, No Iterations 0
smoothSolver:  Solving for Uy, Initial residual = 1.01042e-06, Final residual = 1.01042e-06, No Iterations 0
DICPCG:  Solving for p, Initial residual = 1.16976e-06, Final residual = 8.2139e-07, No Iterations 1
time step continuity errors : sum local = 8.90747e-09, global = -3.1102e-19, cumulative = -2.07821e-18
DICPCG:  Solving for p, Initial residual = 9.20852e-07, Final residual = 9.20852e-07, No Iterations 0
time step continuity errors : sum local = 9.61952e-09, global = -9.99565e-19, cumulative = -3.07778e-18
ExecutionTime = 2.154 s  ClockTime = 2 s

Time = 1.965

Courant Number mean: 0.222021 max: 0.839935
smoothSolver:  Solving for Ux, Initial residual = 8.4948e-07, Final residual = 8.4948e-07, No Iterations 0
smoothSolver:  Solving for Uy, Initial residual = 9.79028e-07, Final residual = 9.79028e-07, No Iterations 0
DICPCG:  Solving for p, Initial residual = 1.68965e-06, Final residual = 9.41035e-07, No Iterations 2
time step continuity errors : sum local = 9.75851e-09, global = -2.46665e-19, cumulative = -3.32444e-18
DICPCG:  Solving for p, Initial residual = 1.11669e-06, Final residual = 6.9037e-07, No Iterations 1
time step continuity errors : sum local = 7.98786e-09, global = -8.79293e-20, cumulative = -3.41237e-18
ExecutionTime = 2.157 s  ClockTime = 2 s

Time = 1.97

Courant Number mean: 0.222021 max: 0.839935
smoothSolver:  Solving for Ux, Initial residual = 8.29235e-07, Final residual = 8.29235e-07, No Iterations 0
smoothSolver:  Solving for Uy, Initial residual = 9.68617e-07, Final residual = 9.68617e-07, No Iterations 0
DICPCG:  Solving for p, Initial residual = 1.30355e-06, Final residual = 6.75026e-07, No Iterations 1
time step continuity errors : sum local = 7.89081e-09, global = -4.46678e-21, cumulative = -3.41684e-18
DICPCG:  Solving for p, Initial residual = 7.74233e-07, Final residual = 7.74233e-07, No Iterations 0
time step continuity errors : sum local = 8.60435e-09, global = 4.0201e-20, cumulative = -3.37664e-18
ExecutionTime = 2.159 s  ClockTime = 2 s

Time = 1.975

Courant Number mean: 0.222021 max: 0.839935
smoothSolver:  Solving for Ux, Initial residual = 8.16312e-07, Final residual = 8.16312e-07, No Iterations 0
smoothSolver:  Solving for Uy, Initial residual = 9.37949e-07, Final residual = 9.37949e-07, No Iterations 0
DICPCG:  Solving for p, Initial residual = 1.49772e-06, Final residual = 8.12012e-07, No Iterations 2
time step continuity errors : sum local = 8.92671e-09, global = 1.06268e-18, cumulative = -2.31396e-18
DICPCG:  Solving for p, Initial residual = 9.16939e-07, Final residual = 9.16939e-07, No Iterations 0
time step continuity errors : sum local = 9.68385e-09, global = 1.41961e-18, cumulative = -8.94353e-19
ExecutionTime = 2.161 s  ClockTime = 2 s

Time = 1.98

Courant Number mean: 0.222022 max: 0.839935
smoothSolver:  Solving for Ux, Initial residual = 7.9277e-07, Final residual = 7.9277e-07, No Iterations 0
smoothSolver:  Solving for Uy, Initial residual = 9.21842e-07, Final residual = 9.21842e-07, No Iterations 0
DICPCG:  Solving for p, Initial residual = 1.29232e-06, Final residual = 7.83475e-07, No Iterations 1
time step continuity errors : sum local = 8.73054e-09, global = 1.68745e-20, cumulative = -8.77478e-19
DICPCG:  Solving for p, Initial residual = 9.91544e-07, Final residual = 9.91544e-07, No Iterations 0
time step continuity errors : sum local = 1.02273e-08, global = 4.75463e-19, cumulative = -4.02015e-19
ExecutionTime = 2.166 s  ClockTime = 2 s

Time = 1.985

Courant Number mean: 0.222022 max: 0.839935
smoothSolver:  Solving for Ux, Initial residual = 7.81542e-07, Final residual = 7.81542e-07, No Iterations 0
smoothSolver:  Solving for Uy, Initial residual = 9.07231e-07, Final residual = 9.07231e-07, No Iterations 0
DICPCG:  Solving for p, Initial residual = 2.14706e-06, Final residual = 9.64754e-07, No Iterations 2
time step continuity errors : sum local = 1.01275e-08, global = 4.44692e-19, cumulative = 4.26773e-20
DICPCG:  Solving for p, Initial residual = 1.16189e-06, Final residual = 7.85915e-07, No Iterations 1
time step continuity errors : sum local = 8.85579e-09, global = 1.44401e-18, cumulative = 1.48669e-18
ExecutionTime = 2.169 s  ClockTime = 2 s

Time = 1.99

Courant Number mean: 0.222022 max: 0.839936
smoothSolver:  Solving for Ux, Initial residual = 7.62095e-07, Final residual = 7.62095e-07, No Iterations 0
smoothSolver:  Solving for Uy, Initial residual = 8.83407e-07, Final residual = 8.83407e-07, No Iterations 0
DICPCG:  Solving for p, Initial residual = 1.3245e-06, Final residual = 8.10691e-07, No Iterations 1
time step continuity errors : sum local = 9.05676e-09, global = -8.76812e-19, cumulative = 6.09874e-19
DICPCG:  Solving for p, Initial residual = 9.898e-07, Final residual = 9.898e-07, No Iterations 0
time step continuity errors : sum local = 1.03472e-08, global = -1.32349e-18, cumulative = -7.13615e-19
ExecutionTime = 2.172 s  ClockTime = 2 s

Time = 1.995

Courant Number mean: 0.222022 max: 0.839936
smoothSolver:  Solving for Ux, Initial residual = 7.50091e-07, Final residual = 7.50091e-07, No Iterations 0
smoothSolver:  Solving for Uy, Initial residual = 8.65066e-07, Final residual = 8.65066e-07, No Iterations 0
DICPCG:  Solving for p, Initial residual = 1.80259e-06, Final residual = 7.99563e-07, No Iterations 2
time step continuity errors : sum local = 9.05028e-09, global = -1.48975e-19, cumulative = -8.6259e-19
DICPCG:  Solving for p, Initial residual = 9.22976e-07, Final residual = 9.22976e-07, No Iterations 0
time step continuity errors : sum local = 9.94853e-09, global = -7.73331e-19, cumulative = -1.63592e-18
ExecutionTime = 2.174 s  ClockTime = 2 s

Time = 2

Courant Number mean: 0.222023 max: 0.839936
smoothSolver:  Solving for Ux, Initial residual = 7.23966e-07, Final residual = 7.23966e-07, No Iterations 0
smoothSolver:  Solving for Uy, Initial residual = 8.46647e-07, Final residual = 8.46647e-07, No Iterations 0
DICPCG:  Solving for p, Initial residual = 1.35331e-06, Final residual = 9.56794e-07, No Iterations 1
time step continuity errors : sum local = 1.01835e-08, global = -9.42921e-21, cumulative = -1.64535e-18
DICPCG:  Solving for p, Initial residual = 1.14158e-06, Final residual = 6.81161e-07, No Iterations 1
time step continuity errors : sum local = 8.28377e-09, global = 8.22466e-19, cumulative = -8.22885e-19
ExecutionTime = 2.19 s  ClockTime = 2 s

End

